90
Coordinates from ORCA-job Complex_opt_325
O         -2.87333       -0.48245       -0.70022
C         -1.64422       -0.26446       -1.36769
O         -0.57303       -0.74312       -0.61490
C         -0.06957        0.31621        0.22029
C          0.09966       -0.16376        1.64713
O         -1.09318       -0.42273        2.33572
C         -0.99740        1.52088       -0.00249
O         -0.26487        2.70261        0.19775
C         -1.42347        1.23960       -1.43557
O         -2.50104        1.90508       -1.97292
C         -1.71904       -0.76743       -2.80057
O         -2.79563       -0.09715       -3.40307
C         -3.22982       -1.79015       -0.35512
C         -4.57425       -2.15441       -1.02025
C         -5.72800       -1.39474       -0.37666
C         -5.68584       -1.65780        1.11945
C         -4.34420       -1.19208        1.66704
C         -4.32960       -1.42849        3.17190
O         -5.39163       -0.73494        3.75621
O         -3.28752       -1.91837        1.04241
O         -6.73960       -1.00780        1.74459
O         -6.93758       -1.83571       -0.94997
O         -4.52425       -2.02409       -2.41123
C         -4.82953        2.12878       -4.93930
C         -4.37871        1.84531       -3.64814
C         -5.32932        1.93153       -2.62674
C         -6.66169        2.27633       -2.84220
C         -7.06848        2.55093       -4.14761
C         -6.15420        2.47430       -5.18922
B         -2.83981        1.40165       -3.34206
O         -1.88624        1.88282       -4.33837
C         -8.24177        0.28045        5.01132
C         -7.72591        0.19466        3.71397
C         -8.10050        1.20929        2.83140
C         -8.95893        2.25569        3.16647
C         -9.44250        2.30179        4.47252
C         -9.08060        1.32175        5.39002
B         -6.74806       -1.02265        3.22163
O         -7.23020       -2.34295        3.64143
H         -7.23096       -2.40594        4.59960
H         -7.70077        1.16576        1.82671
H        -10.10543        3.10591        4.77440
H         -9.46206        1.37135        6.40365
H         -7.99219       -0.47537        5.75034
H         -1.91339        2.84171       -4.37611
H         -5.02073        1.72671       -1.60647
H         -8.09747        2.82402       -4.35444
H         -6.47685        2.68787       -6.20191
H         -4.13543        2.08473       -5.77156
H         -0.87011        3.44575        0.11381
H         -4.11596       -1.17484       -2.67192
H         -7.64749       -1.47400       -0.40757
H         -3.38740       -1.07562        3.60669
H         -4.37620       -2.51427        3.35663
H         -4.22636       -0.11465        1.48294
H         -5.73900       -2.75310        1.26962
H         -5.59807       -0.31222       -0.54259
H         -4.73804       -3.22102       -0.82001
H         -2.47120       -2.51042       -0.67882
H         -1.87897       -1.85003       -2.86740
H         -0.75920       -0.56290       -3.29349
H         -0.51106        1.38680       -2.04452
H         -1.86526        1.47798        0.66853
H         -1.61398       -1.07549        1.84805
H          0.76438       -1.03899        1.63808
H          0.62675        0.61972        2.19749
H          0.93003        0.58986       -0.14392
C        -10.14801        2.76888       -0.16036
C         -9.62663        1.38214       -0.53950
C         -8.80417        1.38666       -1.82092
C         -7.62012        2.34398       -1.68047
C         -8.14372        3.76236       -1.43318
C         -9.05877        3.84921       -0.21289
C         -8.33930        3.71971        1.13209
C         -9.41041        3.28731        2.15478
C        -10.62820        2.82562        1.29394
H        -10.95885        3.02456       -0.85103
H        -10.47458        0.69741       -0.63186
H         -9.00709        0.97970        0.26755
H         -9.42699        1.68633       -2.67158
H         -7.05780        2.02450       -0.79466
H         -7.30674        4.45767       -1.31539
H         -8.69279        4.09254       -2.32193
H         -9.56179        4.82308       -0.23234
H         -7.85939        4.65550        1.42511
H         -7.54017        2.98049        1.06221
H         -9.72559        4.16862        2.71922
H        -11.03381        1.86864        1.63052
H        -11.43540        3.55477        1.39281
H         -8.44432        0.37675       -2.03492
