93
Coordinates from ORCA-job Complex_opt_579 charge=-2
O         -2.24637        3.57941        0.14294
C         -0.99187        3.30998        0.73504
O          0.05201        3.53270       -0.16015
C          0.33967        2.31147       -0.86648
C          0.40738        2.56620       -2.35810
O         -0.81726        2.88859       -2.95870
C         -0.69619        1.28031       -0.38981
O         -0.12927       -0.00346       -0.45926
C         -0.95050        1.81467        1.01139
O         -2.05170        1.38616        1.71593
C         -0.86739        4.01634        2.07473
O         -1.95272        3.58551        2.85282
C         -2.52872        4.86176       -0.33901
C         -3.76496        5.41903        0.39428
C         -5.01618        4.63589        0.01084
C         -5.13445        4.63925       -1.50589
C         -3.87167        4.05018       -2.11862
C         -4.02138        4.06467       -3.63327
O         -5.14528        3.31651       -3.98413
O         -2.73237        4.81209       -1.72715
O         -6.25678        3.92156       -1.89862
O         -6.13268        5.24092        0.62164
O         -3.56102        5.50751        1.77437
C         -4.24319        2.66975        4.58333
C         -3.73887        1.92910        3.51127
C         -4.59881        0.98250        2.94221
C         -5.89320        0.74578        3.40445
C         -6.34871        1.50433        4.48357
C         -5.53205        2.46488        5.06309
B         -2.19955        2.11550        3.00990
O         -1.22448        1.64572        3.99926
C         -7.93296        2.07250       -4.81744
C         -7.44603        2.43922       -3.55568
C         -7.87268        1.65899       -2.48198
C         -8.74035        0.57208       -2.61071
C         -9.19361        0.24076       -3.88261
C         -8.78778        0.99120       -4.98294
B         -6.43164        3.70625       -3.34908
O         -6.96444        4.95233       -3.91217
H         -7.10199        4.85303       -4.85742
H         -7.51263        1.91278       -1.49084
H         -9.86502       -0.60057       -4.01707
H         -9.14565        0.72868       -5.97204
H         -7.64230        2.63853       -5.69800
H         -1.33609        0.70206        4.13926
H         -4.23070        0.40385        2.10511
H         -7.34705        1.33973        4.87530
H         -5.90109        3.04926        5.89830
H         -3.62188        3.41961        5.06141
H         -0.81590       -0.64323       -0.24843
H         -3.18085        4.67626        2.12886
H         -6.91531        4.83495        0.23240
H         -3.13488        3.62943       -4.10886
H         -4.08053        5.11200       -3.97232
H         -3.75943        3.00719       -1.79142
H         -5.19494        5.69584       -1.83126
H         -4.91330        3.59112        0.34916
H         -3.90194        6.44791        0.03742
H         -1.68472        5.54450       -0.19071
H         -0.89280        5.10859        1.98597
H          0.10451        3.75977        2.51687
H         -0.01352        1.62698        1.56920
H         -1.60932        1.33585       -0.99608
H         -1.18956        3.67289       -2.53431
H          1.16854        3.33726       -2.54204
H          0.77031        1.65200       -2.83455
H          1.33336        1.96267       -0.55438
C         -8.30947       -1.61320        0.57220
C         -7.95332       -0.88971       -0.72780
C         -9.16051       -0.20941       -1.38798
C         -9.90980        0.68309       -0.39043
C        -10.23485       -0.04337        0.90993
C         -9.00183       -0.66774        1.55938
C         -8.02344        0.37141        2.11282
C         -6.81207       -0.28927        2.78717
C         -6.12172       -1.23145        1.80202
C         -7.09270       -2.25964        1.23239
H         -6.57460       -2.90392        0.51564
H         -7.43637       -2.91175        2.04258
H         -5.28828       -1.74402        2.29013
H         -5.68575       -0.65206        0.98329
H         -7.20307       -0.90595        3.60888
H         -8.54690        1.01056        2.83031
H         -7.66372        1.03613        1.32095
H         -9.34169       -1.26984        2.41226
H        -10.96345       -0.83657        0.70769
H        -10.71922        0.64604        1.60828
H         -9.31534        1.57405       -0.17056
H        -10.83200        1.04437       -0.85379
H         -9.85001       -1.00202       -1.70585
H         -7.17997       -0.13936       -0.54584
H         -7.51619       -1.60423       -1.43251
H         -9.02184       -2.40924        0.31995
