86
Coordinates from ORCA-job Complex_opt_27
O          0.08321        2.15974       -0.95973
C          0.67829        0.87954       -0.89903
O          0.77288        0.30306       -2.16353
C         -0.40639       -0.48341       -2.41646
C         -0.98941       -0.14444       -3.77291
O         -1.53857        1.14101       -3.87494
C         -1.32897       -0.28586       -1.20270
O         -2.10299       -1.44387       -1.02036
C         -0.27979       -0.02066       -0.13449
O         -0.66616        0.52782        1.06571
C          1.96630        0.92875       -0.09561
O          1.62761        1.46324        1.15657
C          0.69557        3.16950       -1.71171
C          1.01845        4.36914       -0.79715
C         -0.26346        5.05888       -0.33978
C         -1.05635        5.43256       -1.58364
C         -1.35586        4.17057       -2.38118
C         -2.16800        4.55431       -3.60940
O         -3.34218        5.18566       -3.19824
O         -0.13928        3.54136       -2.77659
O         -2.22519        6.09467       -1.22954
O          0.07518        6.19250        0.42533
O          1.87649        4.01846        0.24819
C          1.09382        2.44428        3.87422
C          0.08019        2.09509        3.00045
C         -1.12639        2.86738        3.07624
C         -1.21456        3.97883        3.97618
C         -0.12847        4.27994        4.82372
C          1.00426        3.51432        4.78154
B          0.47924        0.89235        1.94151
O          1.00799       -0.29272        2.61613
C         -5.53990        7.61856       -1.91289
C         -4.63889        6.59833       -1.60764
C         -5.02754        5.70139       -0.61090
C         -6.23788        5.78308        0.06745
C         -7.11461        6.81332       -0.27051
C         -6.76455        7.72508       -1.25796
B         -3.18571        6.37550       -2.32078
O         -2.69349        7.54010       -3.05768
H         -3.26919        7.72090       -3.80440
H         -4.33459        4.91707       -0.33742
H         -8.06445        6.90794        0.24519
H         -7.44601        8.53016       -1.50812
H         -5.29040        8.35895       -2.66679
H          0.31577       -0.70588        3.13811
H         -0.20778        5.12108        5.50335
H          1.83835        3.73738        5.43621
H          2.01878        1.87899        3.86108
H         -2.76123       -1.25832       -0.34369
H          1.58991        3.18600        0.68042
H         -0.73606        6.70177        0.53073
H         -2.42317        3.66231       -4.19330
H         -1.54618        5.19096       -4.26003
H         -1.95596        3.48381       -1.76630
H         -0.40539        6.06933       -2.21347
H         -0.86737        4.35892        0.26210
H          1.56759        5.08994       -1.41685
H          1.62238        2.81750       -2.17851
H          2.73903        1.55232       -0.56032
H          2.37969       -0.08681       -0.02990
H          0.24573       -0.98401        0.00859
H         -1.97100        0.59421       -1.33920
H         -0.86314        1.79886       -3.66239
H         -0.21762       -0.32123       -4.53501
H         -1.79282       -0.85729       -3.97511
H         -0.11032       -1.54068       -2.44850
C         -3.38225        3.37799        2.34730
C         -4.63448        3.33395        1.59742
C         -5.39506        4.39757        1.92837
C         -4.73257        5.23828        2.97843
C         -3.43186        4.51486        3.19832
C         -5.02814        2.41045        0.54528
C         -6.25545        2.50341        0.02488
C         -7.25149        3.49758        0.54745
C         -6.61198        4.76884        1.14122
C         -2.37955        4.79559        4.01080
C         -2.27117        2.58480        2.27672
H         -4.57819        6.26756        2.63577
H         -5.33581        5.31021        3.88996
H         -4.32254        1.66844        0.18903
H         -6.57350        1.82396       -0.75681
H         -7.84455        3.00382        1.32840
H         -7.96428        3.77231       -0.23282
H         -7.35598        5.23971        1.79093
H         -2.39748        5.64959        4.68007
H         -2.23722        1.74178        1.60494
