86
Coordinates from ORCA-job Complex_opt_32
O          1.23323        3.87816       -0.17823
C          1.84914        2.69551        0.28711
O          2.31675        1.91747       -0.77110
C          1.29565        0.97951       -1.15769
C          1.09925        1.00359       -2.65896
O          0.56926        2.20060       -3.16064
C          0.06354        1.30299       -0.29792
O         -0.68453        0.12948       -0.10711
C          0.76391        1.84804        0.93663
O          0.03972        2.54948        1.87388
C          2.86398        3.01233        1.37197
O          2.16560        3.70950        2.36855
C          1.99666        4.82147       -0.87790
C          1.91690        6.17595       -0.14888
C          0.50266        6.74120       -0.23254
C          0.11313        6.81711       -1.70044
C          0.22754        5.44153       -2.33970
C         -0.11953        5.57787       -3.81492
O         -1.41707        6.07249       -3.93614
O          1.54576        4.92166       -2.20135
O         -1.18328        7.30394       -1.83059
O          0.48611        8.01307        0.37496
O          2.41999        6.10785        1.15281
C          0.91199        4.92073        4.75292
C          0.18271        4.40949        3.69466
C         -1.03639        5.08857        3.36686
C         -1.42501        6.25986        4.09597
C         -0.61609        6.72777        5.15246
C          0.53207        6.06111        5.48131
B          0.90232        3.13128        2.94067
O          1.32403        2.09989        3.88679
C         -4.23230        8.14580       -3.75906
C         -3.37480        7.30710       -3.04894
C         -3.97400        6.37413       -2.19416
C         -5.34938        6.26423       -2.03071
C         -6.17264        7.11498       -2.77072
C         -5.61621        8.05034       -3.62989
B         -1.74639        7.32113       -3.19809
O         -1.21765        8.50596       -3.87676
H         -1.49718        8.50615       -4.79515
H         -3.33247        5.70534       -1.63312
H         -7.25076        7.04502       -2.66944
H         -6.26342        8.70589       -4.20132
H         -3.82305        8.89140       -4.43316
H          0.55292        1.69502        4.29166
H         -0.92177        7.61366        5.69757
H          1.15260        6.41145        6.29754
H          1.83215        4.42734        5.04336
H         -1.51027        0.37017        0.32371
H          2.11097        5.29906        1.61620
H         -0.37504        8.39910        0.18215
H         -0.05611        4.60426       -4.31569
H          0.63399        6.22755       -4.29182
H         -0.49923        4.76421       -1.86858
H          0.84821        7.47664       -2.20132
H         -0.19907        6.06223        0.28005
H          2.57506        6.86254       -0.69782
H          3.04538        4.51411       -0.95335
H          3.70035        3.62742        1.01813
H          3.30096        2.07196        1.73450
H          1.27850        0.98103        1.39150
H         -0.54631        2.08398       -0.77049
H          1.15776        2.92927       -2.92519
H          2.05459        0.74790       -3.13772
H          0.39856        0.20531       -2.91584
H          1.63881       -0.02988       -0.89249
C         -3.06663        5.31722        2.06124
C         -4.11899        5.05969        1.08371
C         -5.05605        6.02429        1.16101
C         -4.72216        7.02723        2.22385
C         -3.42363        6.49671        2.77058
C         -4.25129        3.96152        0.13909
C         -5.14375        4.05696       -0.85182
C         -5.98352        5.29400       -1.04490
C         -6.27243        5.98451        0.30407
C         -2.62213        6.95514        3.76740
C         -1.90994        4.64150        2.33382
H         -5.50387        7.09446        2.98870
H         -4.61721        8.03710        1.81192
H         -3.61990        3.08567        0.23895
H         -5.23726        3.26422       -1.58475
H         -6.94733        4.99408       -1.46533
H         -6.67708        6.98461        0.13158
H         -7.05801        5.43015        0.83481
H         -2.87874        7.84784        4.32841
H         -1.64373        3.75555        1.77865
