88
Coordinates from ORCA-job Complex_opt_323
O         -1.87867        1.92784       -1.19722
C         -0.47956        1.70005       -1.23234
O         -0.19270        0.33770       -1.16087
C          0.00391       -0.03652        0.21638
C         -0.81795       -1.26273        0.55443
O         -2.20414       -1.05554        0.56313
C         -0.27009        1.22375        1.05163
O          0.51163        1.17497        2.21829
C          0.12645        2.28278        0.03627
O         -0.23241        3.59444        0.24059
C          0.15214        2.44532       -2.39856
O         -0.17154        3.80108       -2.22629
C         -2.65727        1.34993       -2.20889
C         -3.43208        2.44780       -2.96950
C         -4.57783        3.00792       -2.13239
C         -5.44154        1.83460       -1.69764
C         -4.58731        0.87767       -0.87576
C         -5.45473       -0.28672       -0.41252
O         -6.55177        0.20162        0.29866
O         -3.51287        0.37830       -1.66952
O         -6.54255        2.27601       -0.97284
O         -5.29876        3.92756       -2.91759
O         -2.58039        3.42841       -3.48584
C         -0.37166        7.03589       -1.32372
C         -0.78418        5.79823       -0.82458
C         -2.05685        5.74896       -0.25525
C         -2.89799        6.85983       -0.16934
C         -2.45092        8.07656       -0.68548
C         -1.19131        8.15833       -1.26146
B          0.14442        4.46113       -0.91900
O          1.57534        4.74720       -0.93680
C         -9.62973        1.36743        1.03050
C         -8.36145        1.87260        0.71968
C         -7.94916        2.98993        1.44384
C         -8.74067        3.60658        2.41057
C         -9.99043        3.07287        2.69731
C        -10.42860        1.94598        2.00836
B         -7.38958        1.20125       -0.41074
O         -8.12666        0.59691       -1.52392
H         -8.58724       -0.19129       -1.22694
H         -6.97367        3.41190        1.22992
H        -10.62200        3.53385        3.44862
H        -11.40360        1.52811        2.23105
H        -10.01317        0.50281        0.49796
H          1.83177        5.18573       -0.12202
H         -2.41497        4.80044        0.12864
H         -3.07366        8.96084       -0.61684
H         -0.84309        9.10763       -1.65109
H          0.61425        7.13183       -1.76525
H          0.26433        1.91993        2.77411
H         -1.88488        3.67157       -2.84234
H         -6.10397        4.13762       -2.43176
H         -4.87762       -0.95932        0.23261
H         -5.74939       -0.87265       -1.29808
H         -4.19791        1.40465        0.00777
H         -5.75461        1.29325       -2.60984
H         -4.17788        3.50338       -1.23083
H         -3.88856        1.95038       -3.83525
H         -2.03117        0.81067       -2.92758
H         -0.21116        2.10477       -3.37516
H          1.23467        2.26024       -2.38763
H          1.22207        2.17755       -0.07967
H         -1.33654        1.30387        1.29788
H         -2.48313       -0.73448       -0.30530
H         -0.52947       -2.07179       -0.13105
H         -0.53166       -1.58954        1.55749
H          1.05992       -0.30846        0.34797
C         -6.77512        6.26200        1.58410
C         -6.62498        7.14821        0.49021
C         -5.33833        7.35069       -0.06558
C         -4.23084        6.72274        0.45034
C         -4.38555        5.90868        1.60071
C         -5.61332        5.67971        2.16568
C         -5.76629        4.88517        3.37576
C         -6.96796        4.54076        3.83882
C         -8.23743        4.86533        3.11027
C         -8.06217        5.96684        2.08927
C         -9.15239        6.61768        1.56280
C         -9.00595        7.53579        0.50803
C         -7.77203        7.78361       -0.03410
H         -5.24875        7.98893       -0.93734
H         -3.50676        5.46876        2.05772
H         -4.86638        4.57635        3.89528
H         -7.05930        3.94521        4.73926
H         -8.99867        5.16837        3.83631
H        -10.14259        6.40324        1.94802
H         -9.88168        8.03379        0.11207
H         -7.66311        8.46842       -0.86654
