88
Coordinates from ORCA-job Complex_opt_301 charge=-2
O          0.05420        4.28260        0.02959
C          1.02600        3.40896        0.58079
O          1.86223        2.90116       -0.41292
C          1.33531        1.64500       -0.88150
C          1.31324        1.61230       -2.39490
O          0.37864        2.47067       -2.98797
C         -0.01034        1.44697       -0.16606
O         -0.25902        0.07044       -0.03528
C          0.30108        2.18596        1.12450
O         -0.70685        2.51644        2.00378
C          1.72959        4.07317        1.75645
O          0.73731        4.39134        2.69975
C          0.49630        5.38272       -0.71569
C         -0.06553        6.68041       -0.10232
C         -1.56522        6.80335       -0.34822
C         -1.81058        6.67294       -1.84397
C         -1.28057        5.32254       -2.30718
C         -1.55868        5.17233       -3.79615
O         -2.93131        5.29649       -4.01979
O          0.12401        5.24248       -2.06216
O         -3.16366        6.81319       -2.12466
O         -2.00224        8.04629        0.14926
O          0.29727        6.81748        1.24358
C         -1.84512        3.46520        5.19532
C         -1.43610        3.91909        3.93840
C         -2.24292        4.88642        3.33713
C         -3.41124        5.37348        3.92240
C         -3.78701        4.88764        5.17441
C         -3.00121        3.93619        5.80702
B         -0.14499        3.28350        3.16918
O          0.67408        2.42731        4.02207
C         -5.91304        6.74765       -4.67604
C         -5.18677        6.27409       -3.57685
C         -5.91973        5.53883       -2.62642
C         -7.28731        5.30949       -2.78850
C         -7.97014        5.78886       -3.89688
C         -7.27200        6.51541       -4.84938
B         -3.56265        6.54032       -3.51474
O         -3.15272        7.70491       -4.31153
H         -3.18461        7.49689       -5.24795
H         -7.82335        4.74606       -2.03257
H         -9.03029        5.59906       -4.01021
H         -7.78320        6.90362       -5.72248
H         -5.40104        7.32813       -5.43543
H          0.19267        1.62989        4.25485
H         -1.96857        5.27919        2.36411
H         -4.69460        5.24580        5.64607
H         -3.29515        3.55771        6.77885
H         -1.25227        2.72192        5.71682
H         -1.14566       -0.03923        0.32135
H          0.14631        5.98499        1.72548
H         -2.90673        8.16307       -0.16101
H         -1.22628        4.19102       -4.15226
H         -0.96642        5.92449       -4.34297
H         -1.80302        4.51880       -1.76991
H         -1.20791        7.45160       -2.35101
H         -2.09570        5.98187        0.15950
H          0.41913        7.50908       -0.63350
H          1.58974        5.44475       -0.72391
H          2.26224        4.98628        1.46682
H          2.48545        3.38161        2.15144
H          1.07589        1.57330        1.62219
H         -0.82187        1.94098       -0.71552
H          0.54848        3.37912       -2.70192
H          2.33287        1.80232       -2.75886
H          1.05996        0.59419       -2.70136
H          2.01389        0.84620       -0.55247
C         -4.21233        6.42849        3.26254
C         -4.48029        7.60012        3.97532
C         -5.17574        8.66241        3.41449
C         -5.62188        8.58775        2.10128
C         -5.37596        7.43275        1.38350
C         -5.76164        7.13703       -0.03338
C         -5.25179        5.74482       -0.22951
C         -5.30043        4.98785       -1.39069
C         -4.80192        3.69013       -1.33683
C         -4.25354        3.18351       -0.16185
C         -4.17016        3.96231        0.98357
C         -4.66132        5.26543        0.94551
C         -4.69766        6.34200        1.95140
H         -4.11142        7.68902        4.99000
H         -5.35444        9.55474        4.00058
H         -6.14968        9.41838        1.64853
H         -5.30847        7.83863       -0.73881
H         -6.84314        7.20524       -0.18699
H         -4.83700        3.06805       -2.22297
H         -3.87464        2.16902       -0.14324
H         -3.72707        3.55309        1.87888
