88
Coordinates from ORCA-job Complex_opt_79 charge=-2
O         -2.21917        2.81706       -2.15712
C         -0.93902        2.27851       -2.41880
O         -1.02698        1.08329       -3.13068
C         -1.08437       -0.01733       -2.20343
C         -2.23290       -0.94271       -2.55031
O         -3.50971       -0.39163       -2.37278
C         -1.09870        0.60004       -0.79618
O         -0.48828       -0.29208        0.10100
C         -0.33501        1.88452       -1.07843
O         -0.38340        2.90201       -0.15730
C         -0.02320        3.33595       -3.00993
O         -0.00883        4.39703       -2.09448
C         -3.03977        3.20523       -3.22327
C         -3.39053        4.70191       -3.08780
C         -4.31817        4.93643       -1.89903
C         -5.53446        4.04126       -2.07802
C         -5.08000        2.59017       -2.15692
C         -6.31163        1.71291       -2.32901
O         -7.16030        1.90732       -1.23889
O         -4.19323        2.40652       -3.25742
O         -6.42957        4.23021       -1.03291
O         -4.67294        6.29908       -1.86592
O         -2.25776        5.51889       -3.08411
C          0.13881        6.69885       -0.32763
C         -0.40783        5.48792        0.11002
C         -1.45161        5.56073        1.06243
C         -1.93084        6.80638        1.50372
C         -1.35503        7.97985        1.02315
C         -0.31392        7.93243        0.11584
B          0.24497        4.16099       -0.62917
O          1.70055        4.09932       -0.48196
C         -9.43185        3.28534        0.98908
C         -8.09539        3.31075        0.58959
C         -7.14006        3.30841        1.60926
C         -7.45947        3.27460        2.96194
C         -8.80680        3.24417        3.31908
C         -9.78677        3.25010        2.33529
B         -7.58354        3.30691       -0.96349
O         -8.58182        3.77339       -1.92689
H         -9.32541        3.16632       -1.94837
H         -6.09627        3.35262        1.32673
H         -9.09062        3.22387        4.36626
H        -10.83228        3.23691        2.62149
H        -10.22258        3.30147        0.24516
H          1.92275        3.94483        0.43967
H         -1.73346        8.93600        1.36941
H          0.13505        8.84838       -0.25010
H          0.94752        6.68381       -1.04957
H         -0.58314        0.06790        0.98800
H         -1.54242        5.14366       -2.52614
H         -5.39698        6.38117       -1.23534
H         -6.02498        0.65595       -2.38058
H         -6.78701        1.96016       -3.29261
H         -4.58470        2.31072       -1.21550
H         -5.99122        4.29477       -3.05417
H         -3.80907        4.64998       -0.96306
H         -3.95545        4.96627       -3.99162
H         -2.54764        3.04130       -4.18815
H         -0.36136        3.70517       -3.98588
H          0.96957        2.89426       -3.17221
H          0.70569        1.57091       -1.28913
H         -2.12462        0.83012       -0.47974
H         -3.58897        0.40944       -2.90677
H         -2.08493       -1.30771       -3.57619
H         -2.16384       -1.81656       -1.89741
H         -0.15907       -0.59975       -2.30761
C         -4.14997        3.45406        2.95750
C         -3.26018        4.50341        2.45376
C         -3.74371        5.69676        2.81836
C         -5.01948        5.51364        3.58722
C         -5.18084        4.02596        3.61420
C         -2.05380        4.28768        1.62088
C         -3.07271        6.97580        2.48798
C         -6.37963        3.23632        4.03479
C         -5.93904        1.79194        4.35379
C         -4.95820        1.22658        3.36618
C         -4.08900        2.01920        2.73043
H         -4.97230        5.94862        4.59277
H         -5.86778        6.00098        3.09142
H         -2.30231        3.60978        0.80544
H         -1.29643        3.74768        2.20079
H         -3.79364        7.69077        2.07449
H         -2.69799        7.45791        3.40036
H         -6.81225        3.65176        4.95043
H         -5.46583        1.78417        5.34462
H         -6.81720        1.14869        4.43670
H         -4.93663        0.15349        3.21803
H         -3.35367        1.61171        2.04494
