88
Coordinates from ORCA-job Complex_opt_75 charge=-2
O         -2.19347        2.67826       -2.19139
C         -0.85461        2.29165       -2.42288
O         -0.79485        1.07404       -3.10123
C         -0.72281        0.00206       -2.14378
C         -1.73566       -1.07497       -2.47312
O         -3.07534       -0.68876       -2.32387
C         -0.83442        0.64843       -0.75406
O         -0.12427       -0.13948        0.16753
C         -0.22694        2.00753       -1.06526
O         -0.38892        3.05233       -0.18242
C         -0.06452        3.43173       -3.04733
O         -0.15954        4.51687       -2.16205
C         -3.03399        2.91850       -3.28520
C         -3.58239        4.35368       -3.18444
C         -4.51093        4.48204       -1.98087
C         -5.59318        3.42443       -2.10462
C         -4.97627        2.04011       -2.22653
C         -6.11472        1.05266       -2.44698
O         -7.02150        1.13954       -1.39457
O         -4.06712        1.97218       -3.32099
O         -6.44862        3.46193       -1.00660
O         -5.05177        5.78374       -1.97031
O         -2.56424        5.31098       -3.20737
C          0.19995        6.81728        0.08651
C         -0.42683        5.56596        0.10837
C         -1.61678        5.47550        0.83405
C         -2.18738        6.56194        1.50065
C         -1.53373        7.78909        1.44214
C         -0.34182        7.91548        0.73971
B          0.20610        4.31137       -0.71848
O          1.66680        4.27971       -0.67145
C         -8.94563        1.08107        0.65500
C         -8.23449        2.27802        0.46141
C         -8.22845        3.16625        1.55038
C         -8.84052        2.83455        2.76985
C         -9.51681        1.63428        2.91706
C         -9.58258        0.75800        1.84288
B         -7.55167        2.48098       -1.02933
O         -8.53593        2.97166       -2.00660
H         -9.28592        2.37296       -2.04209
H         -9.98145        1.38499        3.86458
H        -10.11236       -0.18257        1.93909
H         -8.99048        0.35870       -0.15204
H          1.96093        4.24515        0.24171
H         -2.12117        4.51613        0.87901
H         -1.95854        8.64929        1.94823
H          0.16109        8.87491        0.70196
H          1.13375        6.93932       -0.45135
H         -0.28488        0.21359        1.04764
H         -1.82157        5.05560       -2.62104
H         -5.77922        5.78217       -1.33884
H         -5.72681        0.02845       -2.50329
H         -6.57197        1.27062       -3.42669
H         -4.46190        1.78756       -1.28890
H         -6.13526        3.62966       -3.04648
H         -3.93707        4.29877       -1.05868
H         -4.18612        4.52318       -4.08531
H         -2.50244        2.80188       -4.23570
H         -0.44553        3.72918       -4.03165
H          0.97027        3.09761       -3.20237
H          0.84404        1.80962       -1.25896
H         -1.88427        0.75362       -0.45277
H         -3.25092        0.06976       -2.89558
H         -1.52854       -1.44791       -3.48575
H         -1.56131       -1.91218       -1.79256
H          0.27147       -0.45856       -2.22098
C         -6.58811        4.43179        5.17219
C         -5.27423        4.89691        5.16253
C         -4.70642        5.27884        3.95873
C         -5.44241        5.20438        2.77595
C         -6.74007        4.71991        2.77609
C         -7.31411        4.33851        3.99181
C         -3.31023        5.75657        3.66791
C         -3.46294        6.43610        2.29108
C         -4.60887        5.66304        1.61360
C         -8.71781        3.80503        3.91871
C         -7.57080        4.53203        1.53670
H         -7.04560        4.12884        6.10722
H         -4.71035        4.95339        6.08624
H         -2.90771        6.43506        4.42224
H         -2.62345        4.90464        3.60674
H         -3.83805        7.44706        2.48383
H         -5.15174        6.29054        0.90553
H         -4.24081        4.79812        1.05345
H         -9.41039        4.64349        3.76156
H         -9.01294        3.33480        4.85837
H         -8.36285        5.29489        1.52675
H         -6.98511        4.68174        0.63781
