93
Coordinates from ORCA-job Complex_opt_578
O         -1.80801        0.30626        1.20442
C         -0.41870        0.57014        1.12818
O         -0.17201        1.93191        0.97156
C         -0.09269        2.24389       -0.43169
C         -0.97882        3.42738       -0.76305
O         -2.35548        3.17722       -0.67832
C         -0.38958        0.93773       -1.18389
O          0.30168        0.94752       -2.40751
C          0.09996       -0.06799       -0.15279
O         -0.27033       -1.38564       -0.26945
C          0.31626       -0.10074        2.27549
O         -0.00227       -1.46503        2.20579
C         -2.54939        0.90703        2.22912
C         -3.20807       -0.18049        3.10931
C         -4.35652       -0.86265        2.37462
C         -5.31780        0.22020        1.91600
C         -4.57146        1.15961        0.97806
C         -5.53605        2.21898        0.45684
O         -6.63596        1.60096       -0.14344
O         -3.49788        1.78503        1.68064
O         -6.42727       -0.34132        1.29380
O         -4.97480       -1.77982        3.24748
O         -2.27327       -1.07486        3.63593
C         -0.69005       -4.62266        1.71165
C         -0.94719       -3.44684        0.99868
C         -2.20655       -3.34944        0.40891
C         -3.18756       -4.33600        0.50236
C         -2.89287       -5.48880        1.22493
C         -1.64616       -5.62551        1.82765
B          0.12110       -2.21685        0.90997
O          1.51320       -2.64737        0.82482
C         -9.77173       -0.31122        0.08175
C         -8.41203       -0.20725       -0.20807
C         -7.93410       -0.98130       -1.27226
C         -8.72225       -1.88440       -1.98038
C        -10.08064       -1.94533       -1.65782
C        -10.60447       -1.15546       -0.64720
B         -7.37687        0.64762        0.72089
O         -8.03940        1.33228        1.83331
H         -8.61829        2.01564        1.48781
H         -6.88247       -0.89795       -1.51557
H        -10.73040       -2.62274       -2.20269
H        -11.66209       -1.21121       -0.41547
H        -10.19398        0.26358        0.89888
H          1.63508       -3.19138        0.04294
H         -2.44942       -2.45627       -0.15669
H         -3.62537       -6.28203        1.32393
H         -1.42171       -6.52424        2.39100
H          0.27460       -4.76255        2.18817
H          0.02309        0.17756       -2.91207
H         -1.61465       -1.34293        2.96096
H         -5.81161       -2.02478        2.83645
H         -5.03411        2.85535       -0.28159
H         -5.81988        2.87390        1.29614
H         -4.18542        0.58785        0.12157
H         -5.61313        0.80887        2.80435
H         -3.97079       -1.38676        1.48448
H         -3.64657        0.34748        3.96627
H         -1.91361        1.53302        2.86434
H          0.02661        0.29104        3.25798
H          1.39150        0.09496        2.16599
H          1.20140        0.04664       -0.12846
H         -1.46887        0.82142       -1.34490
H         -2.57694        2.88594        0.21675
H         -0.67599        4.27270       -0.12927
H         -0.76646        3.72205       -1.79397
H          0.94073        2.54143       -0.65511
C         -5.65532       -4.32982       -2.47755
C         -5.64077       -2.85506       -2.87493
C         -6.86563       -2.45760       -3.69351
C         -8.20659       -2.82824       -3.05165
C         -8.16896       -4.29958       -2.58881
C         -6.95348       -4.70957       -1.75139
C         -6.98236       -4.20641       -0.30602
C         -5.74133       -4.63079        0.47534
C         -4.48796       -4.11578       -0.22610
C         -4.42697       -4.69619       -1.64444
H         -3.52125       -4.34805       -2.15112
H         -4.33979       -5.78642       -1.57004
H         -4.60551       -3.02908       -0.31403
H         -5.70823       -5.72279        0.55983
H         -5.78956       -4.23789        1.49514
H         -7.88488       -4.58352        0.18478
H         -7.05584       -3.11787       -0.27176
H         -6.97402       -5.80630       -1.69307
H         -8.16583       -4.92014       -3.49176
H         -9.09244       -4.54842       -2.05758
H         -8.95315       -2.79321       -3.85334
H         -6.81055       -2.97084       -4.65894
H         -6.83767       -1.38788       -3.91872
H         -5.56482       -2.23053       -1.98388
H         -4.73847       -2.65238       -3.45986
H         -5.62169       -4.91594       -3.40528
