94

O      0.116050    1.995900   -1.689790
C      0.835970    0.847670   -2.094440
O      0.715340    0.628050   -3.464630
C     -0.409700   -0.235090   -3.711480
C     -1.310210    0.360250   -4.774760
O     -1.974100    1.534760   -4.392900
C     -1.056150   -0.509020   -2.344390
O     -1.642180   -1.785980   -2.365780
C      0.165220   -0.358880   -1.450620
O     -0.008120   -0.209570   -0.095710
C      2.258330    0.886670   -1.565170
O      2.155880    1.022370   -0.175920
C      0.479420    3.247330   -2.204270
C      0.851160    4.201870   -1.051580
C     -0.382130    4.577350   -0.232200
C     -1.401610    5.164400   -1.194940
C     -1.736350    4.139130   -2.269860
C     -2.733220    4.762230   -3.239650
O     -3.855340    5.214270   -2.546360
O     -0.562240    3.764650   -2.987800
O     -2.553410    5.565270   -0.525110
O     -0.000420    5.507990    0.754020
O      1.917160    3.722920   -0.286820
C      1.906000    1.523390    2.739030
C      0.855580    1.079790    1.919990
C     -0.400170    1.612050    2.219580
C     -0.569390    2.591280    3.216110
C      0.497000    3.028680    3.987420
C      1.743060    2.463800    3.751000
B      1.239560    0.143050    0.632030
O      2.018880   -1.047140    0.963850
C     -6.147620    6.773890   -1.185420
C     -5.011040    6.218630   -0.582650
C     -5.169350    5.734860    0.716070
C     -6.395120    5.746090    1.388400
C     -7.497680    6.302240    0.749520
C     -7.370280    6.825810   -0.532620
B     -3.600160    6.128580   -1.401910
O     -3.131830    7.447390   -1.848510
H     -3.783130    7.848260   -2.428910
H     -4.307520    5.310000    1.215250
S     -9.135449    6.361040    1.363979
N     -8.262690    7.328354   -1.228384
F     -6.086340    7.171730   -2.194240
H      1.481580   -1.651510    1.482480
F      0.364030    3.783780    4.753390
N      2.595720    2.769470    4.345750
H      2.902740    1.129340    2.571780
H     -2.142680   -1.897650   -1.552020
H      1.824030    2.765030   -0.096750
H     -0.814150    5.851020    1.139940
H     -3.045440    4.023860   -3.987460
H     -2.219460    5.568820   -3.788870
H     -2.194100    3.256220   -1.800300
H     -0.914760    6.019410   -1.699170
H     -0.807930    3.677620    0.241000
H      1.206070    5.125070   -1.528670
H      1.335810    3.164330   -2.882430
H      2.847740    1.718750   -1.968680
H      2.770610   -0.035620   -1.872080
H      0.810990   -1.227690   -1.686410
H     -1.801810    0.261320   -2.109080
H     -1.322180    2.204580   -4.147310
H     -0.717450    0.505650   -5.688380
H     -2.075560   -0.381930   -5.015240
H     -0.029080   -1.186980   -4.105540
C     -2.606180    4.022770    3.947020
C     -1.967300    3.010130    3.242850
C     -2.677880    2.233120    2.327260
C     -4.044750    2.406020    2.172370
C     -4.698140    3.399740    2.886790
C     -3.965970    4.240600    3.743280
C     -1.746390    1.313370    1.597780
C     -4.634430    5.411140    4.307870
C     -5.802220    5.848640    3.830110
C     -6.560350    5.112240    2.757460
C     -6.178750    3.626070    2.778430
C     -1.747719    4.736102    4.859009
H     -4.604480    1.786200    1.479690
H     -1.758300    1.511750    0.524280
H     -2.027870    0.262910    1.709880
H     -4.108930    5.977450    5.069260
H     -6.227650    6.775540    4.197350
H     -7.623590    5.174180    3.007860
H     -6.660330    3.170880    3.651830
H     -6.583770    3.116950    1.901960
H      3.432099    2.253412    4.037440
H      2.752751    3.780429    4.226577
O     -0.894237    5.604877    4.562335
O     -2.031364    4.449343    5.950637
H     -1.341859    3.768750    6.505722
O     -8.165531    7.750638   -2.431202
O     -9.440897    6.690684   -1.546423
H     -8.728768    5.866774    2.345540
