86
Coordinates from ORCA-job Complex_opt_29
O          0.20559        2.09961       -0.75777
C          0.71768        0.78782       -0.65569
O          0.89177        0.20630       -1.90953
C         -0.30056       -0.51659       -2.27018
C         -0.74689       -0.13523       -3.66673
O         -1.20567        1.18317       -3.79573
C         -1.31355       -0.27270       -1.14121
O         -2.15795       -1.39040       -1.03219
C         -0.35558       -0.05375        0.01924
O         -0.82700        0.52927        1.16996
C          1.93066        0.75885        0.25651
O          1.51884        1.30386        1.48023
C          0.94740        3.08313       -1.42045
C          1.21721        4.25892       -0.45908
C         -0.08096        4.99107       -0.13291
C         -0.71023        5.42041       -1.44956
C         -0.95869        4.19433       -2.31751
C         -1.56856        4.65361       -3.63352
O         -2.75087        5.34659       -3.37535
O          0.26095        3.50218       -2.56997
O         -1.89500        6.11235       -1.22060
O          0.21054        6.09670        0.69067
O          1.94549        3.86511        0.66577
C          0.67139        2.68642        3.96029
C         -0.23256        2.17306        3.01654
C         -1.42822        2.88294        2.88931
C         -1.68256        4.04779        3.63604
C         -0.76016        4.53452        4.54971
C          0.42609        3.83138        4.71092
B          0.24070        0.87006        2.14347
O          0.59447       -0.28435        2.96961
C         -4.89095        7.96273       -2.29184
C         -4.19320        6.80243       -1.95838
C         -4.88339        5.85407       -1.19383
C         -6.19611        6.02641       -0.76916
C         -6.86172        7.19699       -1.13716
C         -6.21143        8.15933       -1.89372
B         -2.65893        6.49225       -2.43145
O         -1.98505        7.63871       -3.04263
H         -2.41158        7.85658       -3.87463
H         -4.36863        4.94062       -0.92044
H         -7.88920        7.35383       -0.82537
H         -6.73569        9.06570       -2.17441
H         -4.40392        8.73614       -2.87682
H         -0.19083       -0.61822        3.41092
H         -0.95725        5.43402        5.12134
H          1.16791        4.17981        5.41979
H          1.61660        2.17661        4.11284
H         -2.84379       -1.18313       -0.38997
H          1.59617        3.03059        1.04491
H         -0.59553        6.62275        0.73514
H         -1.78761        3.79144       -4.27455
H         -0.82344        5.26533       -4.16872
H         -1.67673        3.53155       -1.81242
H          0.03024        6.05146       -1.97743
H         -0.77493        4.30607        0.38133
H          1.85758        4.96372       -1.00555
H          1.90461        2.69047       -1.78110
H          2.77664        1.33900       -0.13173
H          2.27963       -0.27941        0.34411
H          0.10139       -1.04318        0.21654
H         -1.89526        0.63876       -1.33169
H         -0.50379        1.79263       -3.53222
H          0.07214       -0.35353       -4.36602
H         -1.57400       -0.79443       -3.94273
H         -0.05871       -1.58763       -2.28782
C         -4.91082        5.99931        3.13291
C         -3.66538        5.71878        3.68647
C         -2.99267        4.57896        3.26941
C         -3.56085        3.72903        2.31657
C         -4.80861        4.00112        1.77274
C         -5.48662        5.16024        2.18631
C         -2.61916        2.60576        1.99924
C         -6.84319        5.42323        1.59859
C         -6.91546        5.02278        0.11791
C         -6.39135        3.62297       -0.03903
C         -5.41763        3.15714        0.74664
H         -5.44354        6.89125        3.44216
H         -3.23327        6.38663        4.42201
H         -2.34972        2.59718        0.94082
H         -3.06160        1.62625        2.19962
H         -7.12437        6.47084        1.72379
H         -7.58792        4.83385        2.14719
H         -7.97113        5.03259       -0.16845
H         -6.78982        3.00967       -0.83883
H         -5.02404        2.15778        0.59851
