86
Coordinates from ORCA-job Complex_opt_30 charge=-2
O         -0.24667        2.64665       -0.53438
C          0.72866        1.78671        0.01556
O          1.33900        1.01318       -0.97285
C          0.63448       -0.23562       -1.09744
C          0.36376       -0.54066       -2.55470
O         -0.50007        0.36637       -3.18478
C         -0.59090       -0.13608       -0.17443
O         -0.93867       -1.42575        0.25971
C         -0.00919        0.78074        0.88878
O         -0.83542        1.38532        1.81431
C          1.67430        2.55908        0.91951
O          0.88245        3.14631        1.91882
C          0.13986        3.66732       -1.41143
C         -0.40441        5.00115       -0.86884
C         -1.92835        5.01708       -0.94418
C         -2.33880        4.72133       -2.38055
C         -1.74298        3.39736       -2.82808
C         -2.15186        3.17560       -4.27512
O         -3.53888        3.07769       -4.33624
O         -0.32578        3.40826       -2.70820
O         -3.72118        4.69453       -2.48485
O         -2.38763        6.27895       -0.51850
O          0.09795        5.29540        0.40367
C         -0.29465        3.90391        4.63877
C         -0.96666        3.30162        3.60133
C         -2.34658        3.69048        3.41683
C         -2.94547        4.65186        4.30830
C         -2.16958        5.23293        5.34755
C         -0.87104        4.86629        5.50412
B         -0.03542        2.26732        2.71617
O          0.81903        1.46067        3.58768
C         -6.38341        2.37524       -3.94928
C         -5.70680        3.31345       -3.16062
C         -6.17383        3.47108       -1.85469
C         -7.21185        2.71493       -1.31534
C         -7.84599        1.77967       -2.12742
C         -7.44017        1.62473       -3.44798
B         -4.37188        4.11530       -3.67822
O         -4.66691        5.23495       -4.57961
H         -5.13227        4.91004       -5.35482
H         -5.68190        4.19060       -1.21232
H         -8.65227        1.17322       -1.72875
H         -7.93749        0.89770       -4.07992
H         -6.07006        2.20278       -4.97409
H          0.27577        0.95428        4.19593
H         -2.63163        5.96220        6.00310
H         -0.27013        5.30193        6.29346
H          0.73759        3.63184        4.82257
H         -1.75528       -1.36158        0.76396
H          0.14689        4.49394        0.96416
H         -3.33453        6.30532       -0.69354
H         -1.70815        2.25258       -4.66624
H         -1.74868        4.00051       -4.88757
H         -2.16730        2.58489       -2.22236
H         -1.89649        5.51203       -3.01867
H         -2.33667        4.22232       -0.29831
H         -0.03333        5.78875       -1.53781
H          1.22949        3.73022       -1.50407
H          2.23188        3.34314        0.39302
H          2.42119        1.86371        1.32406
H          0.77060        0.17818        1.38899
H         -1.43156        0.34203       -0.69301
H         -0.11892        1.25093       -3.12343
H          1.32591       -0.61786       -3.07936
H         -0.10205       -1.52765       -2.60909
H          1.27902       -1.03747       -0.71199
C         -5.32566        2.97697        1.22369
C         -6.62732        3.35229        1.10983
C         -7.20031        4.28444        2.02789
C         -6.45796        4.83301        3.02185
C         -5.08544        4.47094        3.16475
C         -4.50644        3.52505        2.25988
C         -7.67434        2.93008        0.10172
C         -8.72120        4.05931        0.22573
C         -8.64550        4.51050        1.68708
C         -3.16442        3.16875        2.40529
C         -4.28357        5.01360        4.15958
H         -4.88120        2.27573        0.52548
H         -6.88548        5.55358        3.71075
H         -8.13655        2.00052        0.45983
H         -8.43115        4.88528       -0.42882
H         -9.71635        3.73236       -0.07586
H         -8.96980        5.54104        1.83765
H         -9.28068        3.87919        2.31701
H         -2.74185        2.45271        1.71482
H         -4.71044        5.73903        4.84457
