93
Coordinates from ORCA-job Complex_opt_573 charge=-2
O         -2.24636        3.57942        0.14294
C         -0.99185        3.31000        0.73504
O          0.05202        3.53274       -0.16015
C          0.33969        2.31151       -0.86649
C          0.40740        2.56624       -2.35810
O         -0.81724        2.88862       -2.95870
C         -0.69616        1.28034       -0.38981
O         -0.12923       -0.00343       -0.45926
C         -0.95047        1.81469        1.01139
O         -2.05167        1.38617        1.71593
C         -0.86738        4.01636        2.07474
O         -1.95270        3.58552        2.85282
C         -2.52872        4.86177       -0.33901
C         -3.76496        5.41903        0.39428
C         -5.01618        4.63588        0.01084
C         -5.13445        4.63925       -1.50589
C         -3.87167        4.05018       -2.11862
C         -4.02138        4.06466       -3.63326
O         -5.14528        3.31649       -3.98412
O         -2.73237        4.81209       -1.72715
O         -6.25678        3.92154       -1.89862
O         -6.13268        5.24090        0.62164
O         -3.56102        5.50751        1.77437
C         -4.24316        2.66973        4.58333
C         -3.73885        1.92909        3.51127
C         -4.59878        0.98248        2.94221
C         -5.89317        0.74576        3.40444
C         -6.34867        1.50430        4.48357
C         -5.53203        2.46486        5.06309
B         -2.19953        2.11551        3.00990
O         -1.22445        1.64574        3.99926
C         -7.93296        2.07248       -4.81743
C         -7.44602        2.43920       -3.55567
C         -7.87266        1.65897       -2.48198
C         -8.74033        0.57206       -2.61070
C         -9.19359        0.24074       -3.88261
C         -8.78777        0.99118       -4.98293
B         -6.43163        3.70623       -3.34908
O         -6.96444        4.95231       -3.91217
H         -7.10199        4.85301       -4.85742
H         -7.51261        1.91276       -1.49084
H         -9.86500       -0.60060       -4.01706
H         -9.14564        0.72865       -5.97204
H         -7.64230        2.63851       -5.69800
H         -1.33605        0.70207        4.13926
H         -4.23066        0.40385        2.10511
H         -7.34702        1.33970        4.87530
H         -5.90107        3.04923        5.89830
H         -3.62187        3.41960        5.06141
H         -0.81585       -0.64321       -0.24843
H         -3.18085        4.67627        2.12886
H         -6.91531        4.83493        0.23240
H         -3.13487        3.62943       -4.10886
H         -4.08053        5.11199       -3.97232
H         -3.75942        3.00719       -1.79141
H         -5.19495        5.69583       -1.83126
H         -4.91330        3.59111        0.34917
H         -3.90195        6.44791        0.03742
H         -1.68473        5.54452       -0.19071
H         -0.89281        5.10862        1.98598
H          0.10452        3.75981        2.51687
H         -0.01349        1.62701        1.56919
H         -1.60929        1.33587       -0.99608
H         -1.18956        3.67291       -2.53431
H          1.16855        3.33730       -2.54204
H          0.77034        1.65205       -2.83455
H          1.33338        1.96271       -0.55438
C         -9.00179       -0.66778        1.55939
C         -8.02340        0.37137        2.11282
C         -6.81202       -0.28930        2.78717
C         -6.12168       -1.23147        1.80201
C         -7.09265       -2.25966        1.23238
C         -8.30942       -1.61323        0.57220
C         -7.95329       -0.88974       -0.72780
C         -9.16049       -0.20943       -1.38797
C         -9.90978        0.68305       -0.39042
C        -10.23481       -0.04341        0.90994
H        -10.71918        0.64599        1.60830
H        -10.96342       -0.83661        0.70771
H        -10.83198        1.04433       -0.85377
H         -9.31532        1.57402       -0.17054
H         -9.84998       -1.00205       -1.70584
H         -7.51616       -1.60425       -1.43252
H         -7.17994       -0.13938       -0.54584
H         -9.02180       -2.40927        0.31995
H         -7.43632       -2.91178        2.04257
H         -6.57454       -2.90394        0.51563
H         -5.68571       -0.65207        0.98328
H         -5.28823       -1.74403        2.29012
H         -7.20302       -0.90598        3.60887
H         -7.66369        1.03610        1.32096
H         -8.54687        1.01052        2.83032
H         -9.34165       -1.26988        2.41227
