88
Coordinates from ORCA-job Complex_opt_309
O         -0.37250        2.61564        0.57950
C          0.59311        1.76793        1.18055
O          1.59200        1.42775        0.26889
C          1.23939        0.19398       -0.38520
C          1.39812        0.32607       -1.88516
O          0.48555        1.19505       -2.49705
C         -0.15802       -0.18457        0.13031
O         -0.29171       -1.58306        0.10570
C         -0.08218        0.44486        1.51191
O         -1.22347        0.60338        2.26574
C          1.07720        2.35758        2.49821
O         -0.05656        2.50847        3.31296
C          0.07091        3.83853        0.05673
C         -0.72018        4.99284        0.70265
C         -2.15275        5.05429        0.17524
C         -2.08254        5.14528       -1.34101
C         -1.36084        3.91033       -1.86456
C         -1.29849        3.99291       -3.38429
O         -2.58681        4.12656       -3.89733
O         -0.03474        3.85008       -1.34118
O         -3.35152        5.25653       -1.89741
O         -2.78299        6.17416        0.74632
O         -0.63252        4.96993        2.09895
C         -2.85613        1.56932        5.38425
C         -2.35261        1.85626        4.11428
C         -3.14712        2.65957        3.29856
C         -4.38467        3.16623        3.69390
C         -4.85378        2.85739        4.97015
C         -4.08840        2.05861        5.80833
B         -0.92186        1.31302        3.55425
O         -0.20921        0.45162        4.48885
C         -4.99844        4.79668       -5.33902
C         -4.90469        5.05011       -3.96238
C         -6.12462        5.20625       -3.28080
C         -7.34367        5.10559       -3.95729
C         -7.39574        4.85539       -5.31993
C         -6.20619        4.69842       -6.01600
B         -3.38748        5.25917       -3.36489
O         -2.85550        6.56153       -3.80865
H         -2.86586        6.60955       -4.76775
H         -8.26587        5.22353       -3.39963
H         -8.34999        4.78310       -5.82674
H         -6.21817        4.50146       -7.08153
H         -4.08663        4.67224       -5.91353
H         -0.72511       -0.33864        4.66552
H         -2.78673        2.91086        2.30776
H         -5.81449        3.23430        5.30093
H         -4.45741        1.81599        6.79790
H         -2.28061        0.95057        6.06438
H         -1.19365       -1.79864        0.36161
H         -0.69890        4.06035        2.44640
H         -3.66831        6.21634        0.36862
H         -0.83798        3.08842       -3.79803
H         -0.64045        4.83412       -3.65796
H         -1.92303        3.00974       -1.57649
H         -1.45452        6.02197       -1.58971
H         -2.69195        4.13109        0.44485
H         -0.22572        5.91883        0.38117
H          1.13613        3.98843        0.26047
H          1.56918        3.32982        2.37700
H          1.82635        1.68064        2.93033
H          0.67561       -0.15133        2.05474
H         -0.93938        0.29480       -0.47293
H          0.57261        2.07514       -2.10552
H          2.43844        0.60850       -2.09873
H          1.24765       -0.66480       -2.32119
H          1.94322       -0.58157       -0.05385
C         -5.83086        4.70737        0.51947
C         -5.35594        3.72052        1.42489
C         -5.14423        2.40433        0.93974
C         -5.34334        2.10910       -0.37938
C         -5.70169        3.11522       -1.29298
C         -5.92379        4.40263       -0.87263
C         -6.20437        5.48429       -1.82179
C         -6.57565        6.68857       -1.37963
C         -6.73022        7.03128        0.06282
C         -6.17818        5.99460        0.99934
C         -6.02771        6.27178        2.33673
C         -5.48341        5.32676        3.21620
C         -5.11574        4.07360        2.78396
H         -4.83861        1.62622        1.62517
H         -5.19858        1.09630       -0.73373
H         -5.77553        2.86987       -2.34382
H         -6.78600        7.47815       -2.09241
H         -7.79463        7.18876        0.28105
H         -6.26279        8.00027        0.26356
H         -6.29593        7.25180        2.71457
H         -5.30553        5.60993        4.24673
