95
Coordinates from ORCA-job Complex_opt_394 charge=-2
O          0.63954        2.32513       -0.50194
C          1.21113        1.04036       -0.38043
O          1.84006        0.65364       -1.56486
C          0.90219       -0.07257       -2.38222
C          0.94112        0.44254       -3.80520
O          0.48372        1.75821       -3.96279
C         -0.44964       -0.00065       -1.65379
O         -1.21277       -1.13319       -1.98318
C          0.06074        0.05677       -0.22269
O         -0.78948        0.40369        0.80241
C          2.05944        0.95125        0.88020
O          1.21377        1.26519        1.95768
C          1.46361        3.42851       -0.74723
C          1.22758        4.47824        0.35677
C         -0.17768        5.05935        0.24048
C         -0.34547        5.60545       -1.16773
C         -0.10091        4.49391       -2.17857
C         -0.25810        5.07814       -3.57438
O         -1.54150        5.60779       -3.70330
O          1.20648        3.95127       -2.02272
O         -1.62021        6.13191       -1.32497
O         -0.34114        6.06214        1.21634
O          1.53465        3.98264        1.62794
C         -1.28263        0.73486        4.42297
C         -1.01837        1.25597        3.15485
C         -1.63907        2.46420        2.82868
C         -2.49639        3.13366        3.69994
C         -2.73339        2.57462        4.95786
C         -2.12858        1.38143        5.31598
B         -0.04885        0.47572        2.10351
O          0.34762       -0.85177        2.56480
C         -4.08864        7.20031       -4.04112
C         -3.58959        6.69504       -2.83198
C         -4.54667        6.29927       -1.88621
C         -5.91474        6.39998       -2.16279
C         -6.37061        6.89899       -3.37160
C         -5.44259        7.30605       -4.32110
B         -1.96163        6.59286       -2.67191
O         -1.30187        7.89317       -2.86198
H         -1.45578        8.22252       -3.75075
H         -6.63038        6.08004       -1.41362
H         -7.43321        6.97064       -3.56733
H         -5.77354        7.70311       -5.27343
H         -3.38913        7.52396       -4.80582
H         -0.42389       -1.42031        2.62421
H         -1.46225        2.89491        1.85059
H         -3.41380        3.06092        5.64715
H         -2.32534        0.95136        6.29097
H         -0.82438       -0.20116        4.72056
H         -2.08143       -1.03093       -1.58203
H          1.18495        3.07658        1.75169
H         -1.20855        6.45428        1.06488
H         -0.10972        4.30424       -4.33587
H          0.53341        5.83002       -3.73036
H         -0.85756        3.70927       -2.03835
H          0.43549        6.37342       -1.32597
H         -0.92496        4.26350        0.38562
H          1.93624        5.29518        0.16696
H          2.52268        3.14862       -0.75650
H          2.91097        1.64233        0.87470
H          2.47836       -0.06076        0.95121
H          0.52288       -0.93214       -0.04359
H         -0.98508        0.92037       -1.91614
H          1.00687        2.34380       -3.40000
H          1.96259        0.31679       -4.19025
H          0.29846       -0.20085       -4.41128
H          1.21328       -1.12585       -2.41149
C         -4.79225        1.97811        2.45572
C         -5.08435        0.64654        2.61412
C         -4.91947       -0.24977        1.54594
C         -4.54692        0.22815        0.31623
C         -4.29070        1.60077        0.12262
C         -4.07608        2.12242       -1.18295
C         -4.05579        3.46297       -1.37986
C         -4.07497        4.37560       -0.28398
C         -4.21380        5.78140       -0.52858
C         -4.22954        6.62311        0.53276
C         -3.89622        6.18121        1.84276
C         -3.73845        7.14139        2.85924
C         -3.29835        6.76899        4.10024
C         -2.94160        5.43716        4.32299
C         -3.09261        4.45197        3.36085
C         -3.67925        4.80008        2.10298
C         -4.00292        3.88061        1.02989
C         -4.32504        2.48735        1.22576
H         -4.96701        2.65376        3.27969
H         -5.45294        0.28886        3.56683
H         -5.12625       -1.30311        1.68405
H         -4.47726       -0.43963       -0.53499
H         -4.01072        1.43750       -2.02009
H         -4.00017        3.86491       -2.38268
H         -4.42156        7.67955        0.38382
H         -3.94616        8.18033        2.63344
H         -3.16789        7.50175        4.88575
H         -2.47908        5.17595        5.26598
