89
Coordinates from ORCA-job Complex_opt_379 charge=-2
O          0.03815        2.77146       -0.04348
C          1.30707        2.17719       -0.25074
O          2.00525        2.82679       -1.26754
C          1.72788        2.17790       -2.52358
C          1.35425        3.19779       -3.57994
O          0.11167        3.81858       -3.39667
C          0.69131        1.08240       -2.22488
O          0.85844        0.02781       -3.13820
C          1.07186        0.77370       -0.78596
O          0.21669        0.04707        0.00888
C          2.04288        2.03275        1.07259
O          1.20174        1.28201        1.91322
C         -0.01436        4.13429        0.26712
C         -0.68502        4.33654        1.64407
C         -2.18752        4.08507        1.57830
C         -2.74513        4.96850        0.47417
C         -2.08716        4.56897       -0.83973
C         -2.68835        5.38046       -1.98373
O         -4.08064        5.25178       -1.98298
O         -0.68487        4.82549       -0.75457
O         -4.12969        4.86374        0.40731
O         -2.74941        4.39236        2.83192
O         -0.04230        3.61967        2.65731
C         -0.35934       -1.08464        3.59836
C         -0.54655       -0.52899        2.32845
C         -1.85597       -0.51587        1.84456
C         -2.92961       -1.06931        2.54511
C         -2.69888       -1.62756        3.80075
C         -1.41615       -1.61274        4.33120
B          0.71548       -0.04322        1.41493
O          1.85345       -0.95467        1.51950
C         -7.30872        6.07228       -0.32798
C         -6.30742        5.19926       -0.75903
C         -6.70949        3.90811       -1.11257
C         -8.02981        3.46779       -0.99318
C         -8.99643        4.37684       -0.55470
C         -8.63755        5.67667       -0.23854
B         -4.73337        5.63261       -0.70834
O         -4.55634        7.05653       -0.41434
H         -4.91497        7.58213       -1.13309
H         -5.96331        3.21427       -1.48533
H        -10.02489        4.05584       -0.44086
H         -9.39386        6.37360        0.10278
H         -7.04478        7.08273       -0.03820
H          1.59383       -1.83308        1.23141
H         -2.05084       -0.11307        0.85757
H         -3.51590       -2.06626        4.36190
H         -1.23842       -2.03616        5.31270
H          0.63844       -1.13326        4.02056
H          0.14886       -0.60533       -2.99226
H          0.13797        2.69869        2.38062
H         -3.70352        4.43563        2.70288
H         -2.29399        5.02301       -2.94156
H         -2.36137        6.42668       -1.87611
H         -2.26842        3.50201       -1.03311
H         -2.43349        6.00662        0.68966
H         -2.37833        3.02864        1.31925
H         -0.55386        5.39714        1.89433
H          0.98826        4.57310        0.30208
H          2.26463        2.99651        1.54456
H          3.00892        1.54367        0.89067
H          2.06799        0.29544       -0.84550
H         -0.32803        1.48516       -2.27676
H          0.08620        4.25295       -2.53277
H          2.17079        3.92979       -3.65639
H          1.31665        2.67720       -4.54020
H          2.65042        1.68782       -2.86258
C         -8.45857        2.08229       -1.29599
C         -9.55272        1.88764       -2.09596
C        -10.08336        0.59946       -2.35231
C         -9.51922       -0.49802       -1.78418
C         -8.37641       -0.36677       -0.94700
C         -7.80575       -1.48773       -0.34718
C         -6.66826       -1.39060        0.44523
C         -6.06419       -2.52287        1.06199
C         -4.91481       -2.39364        1.77525
C         -4.26169       -1.12919        1.90834
C         -4.85204       -0.02108        1.37018
C         -6.07225       -0.10887        0.64251
C         -6.67909        1.02047        0.09660
C         -7.81503        0.93372       -0.70828
H        -10.03271        2.74543       -2.55049
H        -10.94644        0.50187       -2.99790
H         -9.92490       -1.48684       -1.96119
H         -8.25707       -2.46019       -0.51209
H         -6.52609       -3.49512        0.93795
H         -4.45499       -3.26784        2.21941
H         -4.38195        0.95088        1.47650
H         -6.23293        1.98314        0.30546
