86
Coordinates from ORCA-job Complex_opt_25
O          0.11605        1.99590       -1.68979
C          0.83597        0.84767       -2.09444
O          0.71534        0.62805       -3.46463
C         -0.40970       -0.23509       -3.71148
C         -1.31021        0.36025       -4.77476
O         -1.97410        1.53476       -4.39290
C         -1.05615       -0.50902       -2.34439
O         -1.64218       -1.78598       -2.36578
C          0.16522       -0.35888       -1.45062
O         -0.00812       -0.20957       -0.09571
C          2.25833        0.88667       -1.56517
O          2.15588        1.02237       -0.17592
C          0.47942        3.24733       -2.20427
C          0.85116        4.20187       -1.05158
C         -0.38213        4.57735       -0.23220
C         -1.40161        5.16440       -1.19494
C         -1.73635        4.13913       -2.26986
C         -2.73322        4.76223       -3.23965
O         -3.85534        5.21427       -2.54636
O         -0.56224        3.76465       -2.98780
O         -2.55341        5.56527       -0.52511
O         -0.00042        5.50799        0.75402
O          1.91716        3.72292       -0.28682
C          1.90600        1.52339        2.73903
C          0.85558        1.07979        1.91999
C         -0.40017        1.61205        2.21958
C         -0.56939        2.59128        3.21611
C          0.49700        3.02868        3.98742
C          1.74306        2.46380        3.75100
B          1.23956        0.14305        0.63203
O          2.01888       -1.04714        0.96385
C         -6.14762        6.77389       -1.18542
C         -5.01104        6.21863       -0.58265
C         -5.16935        5.73486        0.71607
C         -6.39512        5.74609        1.38840
C         -7.49768        6.30224        0.74952
C         -7.37028        6.82581       -0.53262
B         -3.60016        6.12858       -1.40191
O         -3.13183        7.44739       -1.84851
H         -3.78313        7.84826       -2.42891
H         -4.30752        5.31000        1.21525
H         -8.45991        6.31908        1.24973
H         -8.23295        7.26220       -1.02287
H         -6.08634        7.17173       -2.19424
H          1.48158       -1.65151        1.48248
H          0.36403        3.78378        4.75339
H          2.59572        2.76947        4.34575
H          2.90274        1.12934        2.57178
H         -2.14268       -1.89765       -1.55202
H          1.82403        2.76503       -0.09675
H         -0.81415        5.85102        1.13994
H         -3.04544        4.02386       -3.98746
H         -2.21946        5.56882       -3.78887
H         -2.19410        3.25622       -1.80030
H         -0.91476        6.01941       -1.69917
H         -0.80793        3.67762        0.24100
H          1.20607        5.12507       -1.52867
H          1.33581        3.16433       -2.88243
H          2.84774        1.71875       -1.96868
H          2.77061       -0.03562       -1.87208
H          0.81099       -1.22769       -1.68641
H         -1.80181        0.26132       -2.10908
H         -1.32218        2.20458       -4.14731
H         -0.71745        0.50565       -5.68838
H         -2.07556       -0.38193       -5.01524
H         -0.02908       -1.18698       -4.10554
C         -2.60618        4.02277        3.94702
C         -1.96730        3.01013        3.24285
C         -2.67788        2.23312        2.32726
C         -4.04475        2.40602        2.17237
C         -4.69814        3.39974        2.88679
C         -3.96597        4.24060        3.74328
C         -1.74639        1.31337        1.59778
C         -4.63443        5.41114        4.30787
C         -5.80222        5.84864        3.83011
C         -6.56035        5.11224        2.75746
C         -6.17875        3.62607        2.77843
H         -2.05386        4.67038        4.62008
H         -4.60448        1.78620        1.47969
H         -1.75830        1.51175        0.52428
H         -2.02787        0.26291        1.70988
H         -4.10893        5.97745        5.06926
H         -6.22765        6.77554        4.19735
H         -7.62359        5.17418        3.00786
H         -6.66033        3.17088        3.65183
H         -6.58377        3.11695        1.90196
