83
Coordinates from ORCA-job Complex_opt_367 charge=-2
O         -1.25158        0.42092        0.42853
C          0.02202        0.06541       -0.07571
O          0.95422        1.07358        0.16716
C          0.98405        1.97083       -0.95778
C          0.90616        3.40979       -0.49218
O         -0.32904        3.79378        0.04679
C         -0.11292        1.49194       -1.92289
O          0.25629        1.83372       -3.23413
C         -0.08909        0.00699       -1.59243
O         -1.10682       -0.82133       -2.01630
C          0.42297       -1.32268        0.39928
O         -0.57252       -2.20925       -0.04427
C         -1.38781        0.70958        1.79128
C         -2.44093       -0.23572        2.40072
C         -3.82647        0.09535        1.86002
C         -4.10279        1.56510        2.12920
C         -3.02439        2.41245        1.47046
C         -3.32577        3.87539        1.76740
O         -4.58979        4.18870        1.26535
O         -1.73603        2.05849        1.96972
O         -5.35847        1.91084        1.64884
O         -4.77362       -0.73869        2.48235
O         -2.08276       -1.58032        2.25072
C         -2.43433       -4.14279       -2.49379
C         -2.31991       -3.00152       -1.69740
C         -3.49080       -2.55280       -1.08180
C         -4.72458       -3.18860       -1.23330
C         -4.79296       -4.32065       -2.04746
C         -3.65037       -4.79260       -2.67413
B         -0.90061       -2.21770       -1.50308
O          0.21342       -2.87361       -2.17966
C         -7.43382        4.97538        0.65912
C         -6.95493        3.65710        0.68041
C         -7.60133        2.75474       -0.18198
C         -8.65948        3.16841       -0.99704
C         -9.10378        4.48077       -0.98932
C         -8.47839        5.39455       -0.15207
B         -5.71606        3.32912        1.71333
O         -6.09229        3.61608        3.10738
H         -6.26656        4.55366        3.22126
H         -9.13743        2.44707       -1.65063
H         -9.92295        4.78461       -1.62899
H         -8.80496        6.42758       -0.13070
H         -6.96956        5.71623        1.30307
H          0.09011       -2.83689       -3.13119
H         -3.44397       -1.67783       -0.44459
H         -5.74074       -4.82569       -2.19114
H         -3.71016       -5.67134       -3.30533
H         -1.55597       -4.54192       -2.98845
H         -0.47668        1.61429       -3.81704
H         -1.80679       -1.76816        1.33373
H         -5.63663       -0.46196        2.15337
H         -2.58040        4.52630        1.29624
H         -3.24455        4.03761        2.85497
H         -3.06190        2.26572        0.38183
H         -4.02448        1.72293        3.22247
H         -3.84195       -0.05767        0.77056
H         -2.45024       -0.04276        3.48095
H         -0.44079        0.58291        2.32712
H          0.51243       -1.38897        1.48990
H          1.41393       -1.55694       -0.01160
H          0.89303       -0.35014       -1.95501
H         -1.08306        1.93201       -1.66056
H         -0.54837        3.21713        0.79165
H          1.73243        3.58766        0.21047
H          1.09376        4.04804       -1.35925
H          1.95262        1.85268       -1.46269
C         -7.86404        0.34731        0.39987
C         -7.20395        1.32457       -0.29364
C         -6.17057        0.93669       -1.17591
C         -5.76717       -0.36534       -1.27338
C         -6.36636       -1.38100       -0.48822
C         -5.92576       -2.73964       -0.49144
C         -6.62541       -3.66516        0.25020
C         -7.74161       -3.30311        1.02585
C         -8.14964       -1.99992        1.07600
C         -7.46997       -1.01014        0.32922
H         -5.67857        1.69267       -1.77567
H         -4.97062       -0.62032       -1.95939
H         -6.29165       -4.69540        0.26231
H         -8.25969       -4.06136        1.59875
H         -8.99324       -1.70794        1.69013
H         -8.68888        0.60936        1.05353
