89
Coordinates from ORCA-job Complex_opt_187
O         -1.37137        3.92155       -0.53580
C         -0.20035        3.31890       -0.01915
O          0.58657        2.79703       -1.04494
C          0.24124        1.41473       -1.25257
C          0.05359        1.12999       -2.72792
O         -1.07188        1.72523       -3.31271
C         -0.95106        1.12395       -0.32708
O         -0.93036       -0.23483        0.02907
C         -0.63036        2.10472        0.79085
O         -1.58205        2.41498        1.73671
C          0.50851        4.26595        0.93800
O         -0.41226        4.58463        1.94823
C         -1.24663        4.94043       -1.48623
C         -1.93332        6.21699       -0.96247
C         -3.44603        6.03872       -0.91602
C         -3.93539        5.56737       -2.27354
C         -3.20543        4.28558       -2.64861
C         -3.73588        3.80894       -3.99138
O         -5.10179        3.55637       -3.86050
O         -1.80098        4.52477       -2.70824
O         -5.30765        5.36407       -2.22355
O         -4.03297        7.26188       -0.53555
O         -1.38859        6.63989        0.25603
C         -2.47468        4.14903        4.84253
C         -2.38107        4.06448        3.45238
C         -3.48450        4.52489        2.72754
C         -4.62834        5.05289        3.31940
C         -4.68282        5.10670        4.71230
C         -3.61071        4.65548        5.46809
B         -1.07286        3.46101        2.68675
O         -0.06924        2.91289        3.59494
C         -8.27883        3.40347       -3.63742
C         -7.31269        3.95564       -2.79108
C         -7.53850        3.82615       -1.41843
C         -8.64817        3.17999       -0.86792
C         -9.57736        2.63857       -1.75663
C         -9.39515        2.75089       -3.12966
B         -5.94963        4.66761       -3.35480
O         -6.20067        5.67244       -4.39419
H         -6.62314        5.26184       -5.15269
H         -6.80195        4.25708       -0.75844
H        -10.45263        2.12509       -1.37272
H        -10.12979        2.32441       -3.80340
H         -8.16547        3.47139       -4.71577
H         -0.44849        2.19005        4.10046
H         -3.45493        4.47344        1.64482
H         -5.55996        5.51474        5.20349
H         -3.65672        4.70740        6.54987
H         -1.64669        3.81493        5.45812
H         -1.71125       -0.41299        0.56175
H         -1.34595        5.89556        0.88489
H         -4.98587        7.15530       -0.63250
H         -3.22696        2.88966       -4.30187
H         -3.51215        4.57127       -4.75598
H         -3.42190        3.51031       -1.90084
H         -3.66537        6.33506       -3.02430
H         -3.69487        5.25276       -0.18555
H         -1.71592        7.00957       -1.68898
H         -0.19621        5.16387       -1.70087
H          0.84526        5.18571        0.44559
H          1.40850        3.76592        1.32138
H          0.29048        1.71306        1.26239
H         -1.89877        1.38804       -0.81297
H         -1.04516        2.68168       -3.17344
H          0.98011        1.40716       -3.25020
H         -0.05578        0.04866       -2.84276
H          1.08563        0.79821       -0.91480
C         -7.75749        2.37513        1.40916
C         -8.89336        3.04935        0.62232
C         -9.28343        4.36944        1.32073
C         -8.08041        5.27486        1.55956
C         -6.95983        4.59675        2.34895
C         -6.55608        3.26638        1.71511
C        -10.40133        5.10754        0.59750
C         -5.77409        5.56021        2.48702
H         -8.18165        2.03762        2.36141
H         -7.42979        1.47309        0.88606
H         -9.76446        2.39166        0.71977
H         -9.66633        4.07657        2.30770
H         -8.40761        6.16732        2.10363
H         -7.69333        5.63666        0.60055
H         -7.34677        4.38539        3.35541
H         -5.97344        3.45179        0.80894
H         -5.88254        2.73026        2.38859
H        -11.25882        4.45639        0.41560
H        -10.74942        5.95721        1.18797
H        -10.06810        5.49113       -0.36847
H         -6.14419        6.49627        2.91767
H         -5.41389        5.80886        1.48356
