89
Coordinates from ORCA-job Complex_opt_369
O          0.10448        0.00044        0.13431
C          1.26442        0.81084        0.17556
O          2.20659        0.29111        1.06505
C          2.02389        0.89633        2.35833
C          2.04369       -0.16116        3.44085
O          0.97280       -1.06343        3.40499
C          0.76312        1.76893        2.25230
O          0.86718        2.83230        3.16455
C          0.86955        2.15060        0.78386
O         -0.19281        2.74082        0.13376
C          1.77726        1.09336       -1.22928
O          0.74335        1.74587       -1.91892
C          0.22747       -1.34515       -0.23496
C         -0.71454       -1.62172       -1.41944
C         -2.17403       -1.53925       -0.98435
C         -2.38200       -2.45697        0.20995
C         -1.39699       -2.12046        1.31837
C         -1.60963       -3.12998        2.43760
O         -2.92179       -3.04762        2.89306
O         -0.05326       -2.18536        0.85191
O         -3.68237       -2.33879        0.68710
O         -2.98419       -1.91317       -2.07310
O         -0.41064       -0.80981       -2.51964
C         -1.40803        4.39897       -2.92111
C         -1.24139        3.27717       -2.10695
C         -2.31053        2.38078       -2.06136
C         -3.48053        2.54998       -2.80395
C         -3.60297        3.68308       -3.60930
C         -2.57184        4.60797       -3.65446
B          0.14901        2.97492       -1.30755
O          1.13641        4.04035       -1.45565
C         -5.19304       -1.81176        3.87696
C         -5.33092       -2.40123        2.61275
C         -6.62349       -2.35029        2.05419
C         -7.68250       -1.74750        2.73913
C         -7.50430       -1.17762        3.99024
C         -6.24175       -1.21026        4.56076
B         -4.02222       -3.11278        1.89722
O         -4.27821       -4.49398        1.47931
H         -4.54918       -5.01561        2.23833
H         -8.66351       -1.72274        2.27804
H         -8.33790       -0.71598        4.50487
H         -6.07144       -0.77018        5.53641
H         -4.21978       -1.82283        4.34931
H          0.80576        4.85239       -1.06417
H         -2.22363        1.48621       -1.45481
H         -4.50254        3.84529       -4.19172
H         -2.67207        5.49150       -4.27361
H         -0.60855        5.12690       -3.00185
H          0.04944        3.33786        3.12727
H         -0.29242        0.11572       -2.23929
H         -3.89271       -1.91107       -1.75231
H         -0.92737       -2.92883        3.27135
H         -1.35249       -4.13174        2.05313
H         -1.61546       -1.11485        1.70421
H         -2.16028       -3.48734       -0.12989
H         -2.40363       -0.50949       -0.66651
H         -0.52497       -2.65413       -1.73910
H          1.25387       -1.58706       -0.53103
H          2.05894        0.18211       -1.77060
H          2.68843        1.70196       -1.15183
H          1.77448        2.78311        0.72279
H         -0.14160        1.17724        2.44201
H          0.94677       -1.49713        2.54178
H          3.01307       -0.67748        3.39980
H          2.00658        0.35066        4.40586
H          2.87475        1.56519        2.54802
C         -6.98575       -2.90300        0.71910
C         -7.66321       -4.08489        0.62642
C         -8.13470       -4.58117       -0.61608
C         -7.93311       -3.87782       -1.76245
C         -7.23347       -2.63960       -1.72957
C         -6.99750       -1.91006       -2.89522
C         -6.25835       -0.73338       -2.87534
C         -5.93374       -0.01159       -4.06001
C         -5.10102        1.06062       -4.01501
C         -4.52332        1.50521       -2.78390
C         -4.89373        0.88385       -1.62494
C         -5.75898       -0.24599       -1.62770
C         -6.05162       -0.93872       -0.45594
C         -6.75373       -2.14192       -0.47414
H         -7.85388       -4.65954        1.52443
H         -8.66295       -5.52580       -0.64096
H         -8.29544       -4.24963       -2.71341
H         -7.37283       -2.28753       -3.84042
H         -6.33192       -0.35501       -5.00741
H         -4.83043        1.56533       -4.93416
H         -4.48910        1.21479       -0.67500
H         -5.67607       -0.55685        0.48312
