95
Coordinates from ORCA-job Complex_opt_402
O         -0.13381        2.19377       -0.10887
C          0.54791        0.95562       -0.07277
O          1.37728        0.80475       -1.18262
C          0.65328        0.13392       -2.22995
C          0.81662        0.87414       -3.54110
O          0.20292        2.13350       -3.58868
C         -0.78237       -0.05116       -1.71439
O         -1.33208       -1.20148       -2.30385
C         -0.49975       -0.13962       -0.22175
O         -1.53224       -0.00379        0.67721
C          1.21603        0.75144        1.27620
O          0.20119        0.84022        2.24048
C          0.60400        3.38427       -0.11340
C          0.20244        4.24196        1.10336
C         -1.22309        4.76403        0.95074
C         -1.31999        5.49852       -0.37634
C         -0.93382        4.55101       -1.50409
C         -1.03684        5.29939       -2.82598
O         -2.33562        5.78796       -2.97800
O          0.39673        4.07375       -1.31734
O         -2.60769        5.99148       -0.56485
O         -1.51280        5.60925        2.03995
O          0.42921        3.57744        2.31201
C         -2.25035        0.64105        4.36686
C         -2.18251        0.78465        2.97740
C         -3.08271        1.67878        2.39958
C         -3.99253        2.42618        3.14842
C         -4.01856        2.26952        4.53167
C         -3.14970        1.36959        5.13589
B         -1.04799        0.02255        2.08893
O         -0.72443       -1.31610        2.57330
C         -5.14381        7.82420       -2.56968
C         -4.47565        6.70064       -2.07898
C         -5.26384        5.58766       -1.78275
C         -6.64788        5.57007       -1.94720
C         -7.27325        6.70359       -2.46646
C         -6.52034        7.82607       -2.77399
B         -2.85467        6.63533       -1.87359
O         -2.21592        7.95245       -1.85232
H         -2.24181        8.34296       -2.72893
H         -4.78011        4.69361       -1.40414
H         -8.34892        6.71813       -2.60019
H         -7.01205        8.71030       -3.16229
H         -4.58528        8.72490       -2.80198
H         -1.50887       -1.86942        2.54789
H         -3.06811        1.82088        1.32465
H         -4.71973        2.83913        5.12986
H         -3.17665        1.23946        6.21130
H         -1.58307       -0.05475        4.86408
H         -2.25862       -1.25194       -2.05081
H          0.09148        2.65946        2.27750
H         -2.34818        6.04397        1.83599
H         -0.80424        4.62903       -3.66134
H         -0.27656        6.09791       -2.83950
H         -1.63696        3.70622       -1.52492
H         -0.57481        6.31649       -0.36078
H         -1.92397        3.91371        0.92963
H          0.86946        5.11359        1.10105
H          1.68104        3.18861       -0.07209
H          1.98562        1.50299        1.48766
H          1.72310       -0.22317        1.27480
H          0.03460       -1.09891       -0.08099
H         -1.39494        0.83214       -1.93641
H          0.55077        2.68706       -2.87727
H          1.88947        0.93384       -3.77129
H          0.36432        0.26285       -4.32614
H          1.09470       -0.86273       -2.36671
C         -7.41108        4.33297       -1.65553
C         -8.25847        3.85681       -2.63921
C         -8.81901        2.57618       -2.58020
C         -8.43321        1.72132       -1.58130
C         -7.57236        2.16607       -0.56091
C         -7.04126        1.23726        0.37805
C         -6.10955        1.62636        1.28017
C         -5.79644        3.00673        1.45844
C         -4.86255        3.41453        2.47277
C         -4.73803        4.73508        2.77264
C         -5.57831        5.71113        2.17594
C         -5.55351        7.04570        2.63000
C         -6.44951        7.96584        2.15146
C         -7.42175        7.56300        1.22218
C         -7.43549        6.27864        0.73912
C         -6.48058        5.32763        1.15590
C         -6.46394        3.96759        0.68189
C         -7.16759        3.52426       -0.50399
H         -8.43706        4.46608       -3.51652
H         -9.48427        2.24249       -3.36567
H         -8.76201        0.68913       -1.57715
H         -7.34801        0.20031        0.31465
H         -5.64662        0.89519        1.92847
H         -4.01584        5.05398        3.51499
H         -4.83074        7.32437        3.38766
H         -6.43233        8.98579        2.51296
H         -8.17430        8.26621        0.88997
H         -8.22438        5.98797        0.06147
