91
Coordinates from ORCA-job Complex_opt_297
O         -1.74659        3.46017       -0.94760
C         -0.35686        3.62427       -0.73148
O          0.37157        3.27957       -1.87071
C          0.75244        1.89324       -1.78657
C          0.45922        1.18405       -3.09078
O         -0.90277        1.05603       -3.39363
C          0.07451        1.33583       -0.52541
O          0.84719        0.27598       -0.02257
C          0.06848        2.60410        0.31413
O         -0.68136        2.67989        1.46756
C         -0.06536        5.00522       -0.16102
O         -0.78002        5.10501        1.04215
C         -2.34605        4.19321       -1.97860
C         -3.52633        4.99538       -1.39727
C         -4.69550        4.07939       -1.04545
C         -5.05206        3.29546       -2.30003
C         -3.84080        2.48603       -2.74364
C         -4.20767        1.71835       -4.00884
O         -5.32791        0.92569       -3.76793
O         -2.74231        3.34858       -3.02463
O         -6.14578        2.46592       -2.08010
O         -5.77026        4.87897       -0.60672
O         -3.12134        5.83078       -0.35097
C         -1.47892        4.92805        4.38115
C         -1.71455        4.19961        3.20958
C         -2.97750        3.61935        3.07784
C         -3.96642        3.71862        4.05880
C         -3.68639        4.45107        5.20858
C         -2.44868        5.06106        5.36545
B         -0.55609        4.04528        2.07489
O          0.78616        4.26389        2.61412
C         -7.78042       -0.69097       -3.49806
C         -7.58042        0.48356       -2.76631
C         -8.37479        0.65310       -1.62868
C         -9.31112       -0.28816       -1.20218
C         -9.48155       -1.44096       -1.96686
C         -8.72219       -1.63791       -3.11172
B         -6.52180        1.62932       -3.24354
O         -7.11347        2.52910       -4.24841
H         -7.41369        2.01465       -5.00156
H         -8.24275        1.55617       -1.04548
H        -10.20683       -2.18825       -1.66191
H         -8.86324       -2.53633       -3.70187
H         -7.19129       -0.87965       -4.38938
H          0.95583        3.64182        3.32523
H         -3.19816        3.05390        2.17742
H         -4.43825        4.54289        5.98497
H         -2.23958        5.63077        6.26353
H         -0.51244        5.39513        4.53332
H          0.37562       -0.10572        0.72383
H         -2.49311        5.37773        0.24239
H         -6.53453        4.29823       -0.52012
H         -3.37488        1.07952       -4.32346
H         -4.36891        2.44938       -4.81789
H         -3.57389        1.76929       -1.95355
H         -5.25988        4.03317       -3.09704
H         -4.39797        3.37175       -0.25279
H         -3.87490        5.65884       -2.19897
H         -1.63729        4.89283       -2.43458
H         -0.36776        5.81706       -0.83326
H          1.01957        5.10453       -0.02247
H          1.13541        2.80969        0.51953
H         -0.94827        1.00435       -0.74469
H         -1.30514        1.93489       -3.41543
H          1.01002        1.69476       -3.89297
H          0.87505        0.17585       -3.02083
H          1.83928        1.84387       -1.63269
C         -7.13045        2.62172        2.40708
C         -8.32184        2.69923        1.69693
C         -8.97014        1.51591        1.37522
C         -8.44410        0.28220        1.75765
C         -7.26139        0.20507        2.47706
C         -6.60860        1.38922        2.79629
C         -5.29663        1.57685        3.50517
C         -5.31420        3.07147        3.88882
C         -6.20492        3.73207        2.81620
C        -10.22790        1.30714        0.57667
C        -10.08969       -0.14600        0.08762
C         -9.31803       -0.82825        1.24602
H         -8.72317        3.65785        1.38569
H         -6.84683       -0.75461        2.76675
H         -4.46850        1.34860        2.82714
H         -5.17758        0.93069        4.37674
H         -6.72421        4.61303        3.19869
H         -5.60967        4.06452        1.95949
H        -10.35792        2.02860       -0.23193
H        -11.10779        1.39712        1.22289
H        -10.01433       -1.16117        2.02366
H         -8.76058       -1.70828        0.92065
H        -11.06885       -0.61234       -0.04370
H         -5.85244        3.14760        4.83941
