88
Coordinates from ORCA-job Complex_opt_306 charge=-2
O         -1.36887       -0.09797        0.05527
C          0.04478       -0.04328        0.00257
O          0.61230       -1.04011        0.79761
C          0.86438       -0.51087        2.11377
C          0.35097       -1.46364        3.17233
O         -1.04275       -1.60454        3.20731
C          0.28945        0.91530        2.12751
O          1.02979        1.69736        3.03083
C          0.48484        1.25734        0.65939
O         -0.12003        2.36612        0.10375
C          0.52869       -0.00445       -1.44142
O         -0.02607        1.14509       -2.02924
C         -2.01046       -1.26666       -0.37472
C         -3.02914       -0.89709       -1.46835
C         -4.19427       -0.10762       -0.88088
C         -4.78171       -0.91426        0.26490
C         -3.70936       -1.22525        1.29608
C         -4.34683       -2.08637        2.37979
O         -5.43208       -1.41237        2.93420
O         -2.61914       -1.92449        0.70362
O         -5.82784       -0.22323        0.86213
O         -5.14323        0.10710       -1.89904
O         -2.41380       -0.27018       -2.55816
C         -0.20254        4.72309       -2.62989
C         -0.73007        3.57258       -2.03912
C         -2.11686        3.42027       -2.10365
C         -2.95380        4.33913       -2.74141
C         -2.38327        5.47830       -3.31135
C         -1.01262        5.66955       -3.24645
B          0.23502        2.45164       -1.35116
O          1.65460        2.74137       -1.53380
C         -7.47035       -0.03525        4.25782
C         -7.39332        0.15529        2.86978
C         -8.23521        1.15575        2.34278
C         -9.08323        1.89296        3.17685
C         -9.12812        1.67449        4.54432
C         -8.30856        0.69725        5.08776
B         -6.46782       -0.89815        2.00050
O         -7.29689       -1.98503        1.45278
H         -7.72502       -2.45755        2.17079
H         -9.71422        2.65917        2.74031
H         -9.78978        2.25994        5.17061
H         -8.32170        0.50337        6.15390
H         -6.84702       -0.79458        4.71358
H          1.90755        3.51053       -1.01780
H         -2.56922        2.53280       -1.67312
H         -3.01011        6.21791       -3.79532
H         -0.57405        6.55776       -3.68559
H          0.86873        4.88756       -2.61942
H          0.61750        2.56524        3.07821
H         -1.77513        0.40246       -2.25796
H         -5.91162        0.51490       -1.48326
H         -3.62029       -2.30762        3.16994
H         -4.62957       -3.05316        1.93100
H         -3.35781       -0.28734        1.74903
H         -5.11726       -1.87868       -0.16176
H         -3.82933        0.85427       -0.48313
H         -3.43730       -1.84212       -1.84892
H         -1.29656       -1.98902       -0.78491
H          0.22333       -0.88804       -2.01376
H          1.62644        0.00537       -1.44433
H          1.58122        1.30173        0.52803
H         -0.77412        0.90790        2.39785
H         -1.35125       -1.90730        2.34280
H          0.85529       -2.43118        3.04178
H          0.66435       -1.07888        4.14630
H          1.95170       -0.43506        2.25036
C         -7.26026        2.17250        0.25894
C         -8.31000        1.51744        0.90018
C         -9.49677        1.29879        0.19625
C         -9.65811        1.71928       -1.12178
C         -8.61047        2.36409       -1.74957
C         -8.51754        2.92528       -3.14187
C         -7.10469        3.43698       -3.19232
C         -6.40941        4.01343       -4.23962
C         -5.06768        4.33073       -4.06595
C         -4.40461        4.08239       -2.85786
C         -5.12518        3.53679       -1.79520
C         -6.46314        3.21765       -1.96906
C         -7.41026        2.57511       -1.05896
H         -6.33899        2.36823        0.79087
H        -10.31624        0.79472        0.69445
H        -10.59399        1.53992       -1.63731
H         -8.70329        2.16798       -3.90903
H         -9.25162        3.71908       -3.31026
H         -6.88717        4.19148       -5.19546
H         -4.51277        4.74132       -4.90048
H         -4.63677        3.34732       -0.84614
