86
Coordinates from ORCA-job Complex_opt_14 charge=-2
O         -0.56479        2.17936       -1.43081
C          0.60818        1.49572       -1.82721
O          0.74110        1.47968       -3.21403
C          0.11955        0.29181       -3.73805
C         -0.81391        0.64318       -4.87807
O         -1.95448        1.36913       -4.50501
C         -0.50645       -0.43634       -2.53820
O         -0.50735       -1.81793       -2.79335
C          0.43460        0.03396       -1.43908
O          0.06385       -0.12277       -0.12574
C          1.81627        2.00652       -1.06219
O          1.52120        1.84990        0.29771
C         -0.70763        3.53676       -1.74553
C         -0.89064        4.35683       -0.45216
C         -2.24671        4.06930        0.18904
C         -3.31019        4.36071       -0.85856
C         -3.07487        3.47300       -2.07386
C         -4.13452        3.79105       -3.12212
O         -5.40625        3.63900       -2.56980
O         -1.78341        3.71503       -2.62719
O         -4.58921        4.16833       -0.34489
O         -2.39311        4.88820        1.32635
O          0.19168        4.21814        0.41951
C          0.73821        1.72814        3.16369
C          0.07679        1.04081        2.13373
C         -1.31004        0.95696        2.26810
C         -1.99292        1.59358        3.32113
C         -1.30911        2.28706        4.30857
C          0.07664        2.33173        4.22833
B          0.96186        0.56293        0.84069
O          2.11493       -0.26700        1.17835
C         -8.28400        4.04282       -1.41294
C         -7.08032        3.80734       -0.73558
C         -7.15694        3.02277        0.41488
C         -8.35063        2.45629        0.87328
C         -9.52021        2.71402        0.16639
C         -9.48719        3.51397       -0.97031
B         -5.67433        4.40037       -1.32002
O         -5.73942        5.84858       -1.56207
H         -6.41895        6.04758       -2.21040
H         -6.24422        2.83164        0.96476
H        -10.45845        2.28287        0.49847
H        -10.40371        3.71173       -1.51413
H         -8.29115        4.64879       -2.31443
H          1.81409       -1.10659        1.53529
H         -1.83646        2.77652        5.11919
H          0.64419        2.85254        4.99057
H          1.81932        1.81135        3.12714
H         -0.97552       -2.25301       -2.07434
H          0.47667        3.28308        0.49529
H         -3.31070        4.80652        1.60883
H         -4.03122        3.11818       -3.98188
H         -3.95333        4.81183       -3.49659
H         -3.17276        2.41813       -1.77780
H         -3.16622        5.40718       -1.18532
H         -2.30534        3.00684        0.47662
H         -0.90131        5.41117       -0.75863
H          0.16964        3.91567       -2.28130
H          2.03784        3.06097       -1.26586
H          2.69990        1.43519       -1.37922
H          1.40544       -0.45507       -1.65145
H         -1.52488       -0.07163       -2.35259
H         -1.68346        2.19529       -4.08365
H         -0.23327        1.16483       -5.65153
H         -1.15812       -0.29211       -5.32661
H          0.90821       -0.35121       -4.15110
C         -4.51586        1.91913        3.83793
C         -3.42964        1.39765        3.14677
C         -3.63003        0.57956        2.03392
C         -4.91153        0.21915        1.64881
C         -6.00384        0.71943        2.34251
C         -5.80516        1.60435        3.41655
C         -2.31852        0.24927        1.39190
C         -6.96992        2.27553        3.99013
C         -8.15030        2.28712        3.36630
C         -8.38916        1.53815        2.08171
C         -7.41501        0.35692        1.97874
H         -4.37307        2.59838        4.67194
H         -5.06959       -0.43083        0.79452
H         -2.28424        0.59199        0.35662
H         -2.13965       -0.82881        1.35356
H         -6.82744        2.84643        4.90126
H         -8.97105        2.87177        3.76594
H         -9.39827        1.11835        2.12756
H         -7.76032       -0.41967        2.67146
H         -7.45371       -0.08083        0.97959
