82
Coordinates from ORCA-job Complex_opt_243
O          0.06014        3.65506       -0.02713
C          1.26491        3.46125        0.68951
O          1.80659        2.20278        0.42837
C          1.33186        1.26789        1.41514
C          0.84082        0.00021        0.74901
O         -0.32452        0.15001       -0.01408
C          0.32039        2.03179        2.28435
O          0.31535        1.47388        3.57373
C          0.91845        3.42577        2.17179
O          0.19618        4.52893        2.57243
C          2.20612        4.63786        0.47646
O          1.52515        5.78600        0.91216
C          0.08202        3.55726       -1.42378
C         -0.46046        4.86695       -2.03282
C         -1.96138        4.99376       -1.79476
C         -2.63169        3.74174       -2.33807
C         -2.06222        2.52946       -1.61609
C         -2.75586        1.28243       -2.14668
O         -4.13099        1.40353       -1.94537
O         -0.65667        2.44005       -1.84357
O         -4.00705        3.82154       -2.17586
O         -2.43158        6.15899       -2.43067
O          0.27469        5.98006       -1.60891
C          0.10823        8.15396        3.17227
C         -0.10531        7.01296        2.39718
C         -1.30243        6.96228        1.68146
C         -2.25154        7.98519        1.70659
C         -2.00238        9.10552        2.50138
C         -0.82592        9.18449        3.23009
B          0.96565        5.78809        2.29992
O          2.09964        5.93084        3.20633
C         -7.18987        1.68754       -2.26257
C         -6.27938        2.67158       -1.84971
C         -6.76818        3.60523       -0.91796
C         -8.09105        3.54953       -0.46814
C         -8.96119        2.56322       -0.90370
C         -8.49880        1.61690       -1.80801
B         -4.77071        2.61781       -2.51224
O         -4.83690        2.55674       -3.98295
H         -5.24542        1.73712       -4.27083
H         -8.43793        4.28971        0.24439
H         -9.98055        2.53251       -0.53929
H         -9.15632        0.83121       -2.16112
H         -6.86959        0.93284       -2.97469
H          1.79420        5.92431        4.11659
H         -1.49715        6.09896        1.05670
H         -2.73086        9.90620        2.55339
H         -0.63678       10.05382        3.84875
H          1.02193        8.24654        3.74903
H         -0.37299        1.91101        4.08392
H          0.43243        5.94713       -0.64682
H         -3.39005        6.15457       -2.32425
H         -2.39441        0.38887       -1.62561
H         -2.48915        1.15870       -3.20928
H         -2.26776        2.61527       -0.53950
H         -2.35008        3.64744       -3.40537
H         -2.16188        5.04771       -0.71404
H         -0.30695        4.79398       -3.11697
H          1.09782        3.38741       -1.79668
H          2.49915        4.76359       -0.57273
H          3.13180        4.45196        1.03806
H          1.88324        3.36714        2.70969
H         -0.68207        2.00039        1.83913
H         -0.18223        0.82875       -0.68804
H          1.66620       -0.42078        0.15758
H          0.62325       -0.72549        1.53682
H          2.17994        0.98587        2.05415
C         -3.44576        7.90707        0.85522
C         -3.95370        8.90373        0.10570
C         -5.10214        8.43221       -0.73108
C         -5.19793        6.98111       -0.36578
C         -6.03954        5.99514       -0.84467
C         -5.92047        4.69301       -0.35981
C         -5.01767        4.43251        0.66955
C         -4.17051        5.41775        1.15805
C         -4.23232        6.69062        0.60403
H         -3.56117        9.91027        0.05600
H         -6.02950        8.97164       -0.51034
H         -4.91184        8.58506       -1.79857
H         -6.76658        6.21665       -1.61837
H         -4.95254        3.42824        1.07067
H         -3.46091        5.18174        1.94124
