88
Coordinates from ORCA-job Complex_opt_321
O         -1.93757        0.93184       -0.23410
C         -0.65142        1.01978        0.34737
O          0.09881       -0.12402        0.07875
C         -0.08224       -1.07271        1.14815
C         -0.40388       -2.44662        0.59710
O         -1.67313       -2.57251        0.01632
C         -1.11611       -0.45874        2.10507
O         -0.86203       -0.91959        3.40832
C         -0.82893        1.01319        1.85976
O         -1.72077        1.97181        2.28992
C          0.00045        2.34651       -0.01592
O         -0.88107        3.35273        0.42107
C         -2.05012        0.71480       -1.61164
C         -2.81911        1.88506       -2.25440
C         -4.27268        1.88994       -1.79920
C         -4.87040        0.51832       -2.08037
C         -4.04106       -0.55050       -1.38219
C         -4.66320       -1.90810       -1.67359
O         -5.97881       -1.90784       -1.21125
O         -2.69488       -0.50931       -1.84718
O         -6.18985        0.47513       -1.65478
O         -4.95810        2.91034       -2.48650
O         -2.16490        3.10597       -2.05218
C         -2.91396        4.64475        3.42151
C         -2.56072        4.31417        2.10658
C         -3.37212        4.84286        1.10034
C         -4.47419        5.65708        1.37136
C         -4.78399        5.96885        2.69008
C         -4.00052        5.45540        3.71572
B         -1.27489        3.33704        1.85844
O         -0.09040        3.77158        2.60143
C         -8.88711       -2.05890       -0.65468
C         -8.18267       -0.84884       -0.74345
C         -8.69522        0.21783        0.01546
C         -9.83788        0.05616        0.80518
C        -10.50478       -1.15688        0.86839
C        -10.02046       -2.22653        0.12735
B         -6.86025       -0.82451       -1.72332
O         -7.22874       -1.04763       -3.13171
H         -7.66540       -1.89762       -3.22763
H        -10.20686        0.89922        1.37878
H        -11.38772       -1.26426        1.48615
H        -10.52377       -3.18559        0.15980
H         -8.53424       -2.91741       -1.21806
H         -0.23725        3.70829        3.54801
H         -3.16025        4.61831        0.06086
H         -5.63639        6.59926        2.91347
H         -4.24016        5.69130        4.74580
H         -2.32793        4.26245        4.25157
H         -1.57204       -0.60757        3.97728
H         -1.95621        3.22476       -1.10590
H         -5.87244        2.87425       -2.18285
H         -4.10324       -2.70315       -1.16727
H         -4.58888       -2.10776       -2.75552
H         -4.07197       -0.38607       -0.29599
H         -4.78645        0.33856       -3.16985
H         -4.31518        2.06933       -0.71273
H         -2.80808        1.71073       -3.33762
H         -1.06805        0.62505       -2.08835
H          0.17341        2.45391       -1.09242
H          0.98328        2.40495        0.46915
H          0.17875        1.18583        2.28136
H         -2.13685       -0.71222        1.79283
H         -1.76426       -1.94350       -0.71226
H          0.39577       -2.73508       -0.09920
H         -0.35987       -3.15271        1.43017
H          0.86995       -1.15762        1.68883
C         -6.47252        3.14088        0.95899
C         -7.09613        1.90155        0.96136
C         -8.06988        1.56888        0.02103
C         -8.47561        2.53342       -0.89779
C         -7.86730        3.77534       -0.90385
C         -8.12989        4.94336       -1.81155
C         -7.10901        5.94709       -1.35787
C         -6.86841        7.21400       -1.85517
C         -5.84868        7.97047       -1.28748
C         -5.08676        7.45589       -0.24508
C         -5.31662        6.17966        0.26694
C         -6.34976        5.42998       -0.29753
C         -6.84149        4.08051        0.00114
H         -5.70206        3.35341        1.68783
H         -6.79238        1.15986        1.69000
H         -9.24820        2.29939       -1.62174
H         -8.00943        4.68584       -2.86793
H         -9.15090        5.32108       -1.70168
H         -7.45778        7.61052       -2.67309
H         -5.64135        8.96495       -1.66135
H         -4.29009        8.05504        0.17910
