85
Coordinates from ORCA-job Complex_opt_460
O          0.17704        2.19137       -0.86821
C          0.37630        0.81913       -0.62670
O          0.41877        0.08985       -1.81445
C         -0.90840       -0.36476       -2.13636
C         -1.22666       -0.06860       -3.58677
O         -1.30985        1.29584       -3.90060
C         -1.84599        0.25274       -1.08542
O         -2.95549       -0.59019       -0.90740
C         -0.87851        0.33257        0.08522
O         -1.18912        1.12177        1.17152
C          1.53787        0.59751        0.32571
O          1.24106        1.32231        1.48815
C          1.13955        2.98072       -1.50680
C          1.51219        4.14705       -0.57140
C          0.28366        5.02164       -0.33414
C         -0.25994        5.46784       -1.68503
C         -0.53245        4.26126       -2.57241
C         -1.00009        4.77527       -3.92301
O         -2.18395        5.48762       -3.74148
O          0.62878        3.45443       -2.72304
O         -1.42552        6.20480       -1.50864
O          0.65496        6.12069        0.46736
O          2.12771        3.70956        0.60480
C          0.92932        2.47601        4.06800
C         -0.18528        2.43480        3.20886
C         -1.14570        3.44468        3.43530
C         -0.95728        4.39379        4.46713
C          0.15781        4.39725        5.27784
C          1.11870        3.41827        5.06700
B         -0.09097        1.15535        2.16622
O         -0.02170       -0.11133        2.89659
C         -4.69098        7.58027       -2.72444
C         -3.78507        6.63602       -2.24398
C         -4.29662        5.66815       -1.36919
C         -5.63069        5.61505       -0.97989
C         -6.50469        6.57222       -1.50016
C         -6.03685        7.54795       -2.36619
B         -2.21417        6.55810       -2.70768
O         -1.67784        7.81667       -3.22677
H         -2.10903        8.03619       -4.05604
H         -3.60976        4.92999       -0.97104
H         -7.55337        6.55166       -1.22178
H         -6.72397        8.28600       -2.76444
H         -4.35470        8.36223       -3.39832
H         -0.84879       -0.26052        3.36144
H          0.27477        5.14092        6.05777
H          2.01010        3.38386        5.68204
H          1.69905        1.72348        3.94787
H         -3.59688       -0.12622       -0.36102
H          1.65492        2.93763        0.98765
H         -0.11302        6.69997        0.51476
H         -1.18181        3.94186       -4.61236
H         -0.19494        5.38318       -4.37058
H         -1.34743        3.67171       -2.13108
H          0.53290        6.06648       -2.17553
H         -0.49381        4.42587        0.17166
H          2.25629        4.75457       -1.10328
H          2.03760        2.40791       -1.76524
H          2.49759        0.94108       -0.07949
H          1.64348       -0.47991        0.51025
H         -0.68934       -0.71385        0.38731
H         -2.16518        1.25730       -1.38988
H         -0.47313        1.71994       -3.67591
H         -0.49047       -0.58689       -4.21636
H         -2.19877       -0.51375       -3.81287
H         -0.93851       -1.45629       -2.01520
C         -3.13607        3.23374        1.71469
C         -2.44481        3.78562        2.79560
C         -3.00435        4.88965        3.46135
C         -4.22598        5.43331        3.09554
C         -4.90189        4.86887        2.02625
C         -4.35076        3.78735        1.34323
C         -2.10112        5.35582        4.55593
C         -5.26763        3.37289        0.22315
C         -6.16550        4.60831        0.01653
C         -6.22881        5.23980        1.43086
H         -2.72233        2.39680        1.17496
H         -4.63113        6.28469        3.63202
H         -2.58636        5.32460        5.53649
H         -1.77820        6.39109        4.40760
H         -4.74177        3.06097       -0.68152
H         -5.88059        2.52022        0.53430
H         -7.16607        4.30957       -0.30456
H         -7.04210        4.79089        2.01215
H         -6.41508        6.31478        1.40562
