85
Coordinates from ORCA-job Complex_opt_436 charge=-2
O          1.72954        2.15693       -0.06381
C          2.23677        0.85357       -0.27206
O          3.28313        0.86130       -1.19260
C          2.75844        0.63267       -2.51356
C          3.30701        1.65811       -3.48404
O          2.86142        2.97015       -3.26931
C          1.23026        0.57353       -2.36714
O          0.70686       -0.26361       -3.36625
C          1.13964        0.04001       -0.94601
O         -0.05744        0.10204       -0.27213
C          2.53309        0.17399        1.05429
O          1.33189        0.18038        1.77978
C          2.57565        3.14952        0.44535
C          1.98302        3.70617        1.75563
C          0.71711        4.51239        1.48513
C          1.03604        5.57337        0.44126
C          1.57915        4.90257       -0.81140
C          1.88169        5.98822       -1.83626
O          0.70600        6.67996       -2.12501
O          2.75823        4.16321       -0.50829
O         -0.10176        6.31094        0.14954
O          0.28096        5.07980        2.69838
O          1.81485        2.71026        2.72319
C         -1.28973       -0.13765        3.35213
C         -1.14414        0.30174        2.02688
C         -2.02830        1.30723        1.63121
C         -2.96925        1.86325        2.51888
C         -3.07975        1.40826        3.82494
C         -2.22894        0.38920        4.23288
B          0.07389       -0.33798        1.14402
O          0.14316       -1.79611        1.23721
C         -1.88480        8.10021       -2.72927
C         -1.57403        7.47210       -1.51621
C         -2.64984        6.93686       -0.81049
C         -3.96058        6.93104       -1.28668
C         -4.22528        7.55274       -2.50147
C         -3.18787        8.15399       -3.20886
B         -0.04082        7.26086       -0.97969
O          0.58886        8.48909       -0.48043
H          0.61402        9.14650       -1.18017
H         -2.44963        6.44702        0.13402
H         -5.23265        7.55697       -2.90374
H         -3.39764        8.63967       -4.15509
H         -1.09446        8.53854       -3.33085
H         -0.65081       -2.18149        0.85849
H         -3.80273        1.83707        4.50934
H         -2.29020        0.00837        5.24559
H         -0.64023       -0.92586        3.71683
H         -0.25282       -0.22082       -3.31690
H          1.41702        1.90279        2.33703
H         -0.44232        5.67870        2.48314
H          2.27502        5.54625       -2.75897
H          2.67604        6.63879       -1.43384
H          0.81112        4.23689       -1.23138
H          1.84380        6.21060        0.85126
H         -0.06102        3.85195        1.07002
H          2.72951        4.40213        2.16080
H          3.57853        2.75790        0.64697
H          3.31175        0.68167        1.63641
H          2.90667       -0.83980        0.85511
H          1.51981       -0.99798       -1.00076
H          0.79713        1.57981       -2.43059
H          3.10794        3.24875       -2.37768
H          4.40385        1.59250       -3.47259
H          2.98900        1.36794       -4.48850
H          3.10570       -0.35224       -2.85415
C         -4.63213        3.84944        2.32564
C         -3.68972        2.94322        1.84650
C         -3.21499        3.02872        0.53172
C         -3.65485        4.02717       -0.31844
C         -4.55343        4.96285        0.17623
C         -5.05006        4.86390        1.47520
C         -2.16360        1.98826        0.28912
C         -5.99150        6.00394        1.75386
C         -5.58258        7.04159        0.69801
C         -5.03953        6.22547       -0.49966
H         -4.99635        3.79410        3.34581
H         -3.25609        4.11566       -1.32286
H         -2.45984        1.28321       -0.49202
H         -1.22760        2.43325       -0.05340
H         -5.91663        6.38599        2.77319
H         -7.02912        5.68574        1.60966
H         -6.39628        7.70814        0.41179
H         -4.77598        7.66082        1.09782
H         -5.86965        5.98873       -1.17764
