85
Coordinates from ORCA-job Complex_opt_449 charge=-2
O          1.16288        4.01430       -0.50124
C          1.76455        2.80154       -0.10152
O          2.05465        1.98793       -1.19633
C          0.94035        1.11088       -1.44404
C          0.56634        1.13865       -2.91128
O          0.06522        2.36737       -3.36405
C         -0.15929        1.51319       -0.44826
O         -0.94168        0.38559       -0.14809
C          0.71189        2.03206        0.68573
O          0.14798        2.79194        1.68517
C          2.92347        3.06422        0.84412
O          2.39868        3.79594        1.91738
C          1.86948        4.93588       -1.28074
C          1.89133        6.29311       -0.54865
C          0.48144        6.87322       -0.47502
C         -0.07883        6.94585       -1.88723
C         -0.04476        5.56851       -2.53180
C         -0.57417        5.70338       -3.95052
O         -1.88717        6.16886       -3.89659
O          1.27870        5.04581       -2.54800
O         -1.37828        7.43795       -1.85859
O          0.54211        8.14785        0.12252
O          2.53273        6.21494        0.69119
C          1.49129        5.16802        4.36305
C          0.59575        4.62786        3.42329
C         -0.63821        5.29225        3.31452
C         -0.92575        6.41940        4.13212
C         -0.01441        6.91451        5.03773
C          1.21837        6.27696        5.14907
B          1.16384        3.31451        2.62964
O          1.61932        2.26791        3.54908
C         -4.74435        8.05516       -3.31331
C         -3.72898        7.32717       -2.69530
C         -4.11814        6.45066       -1.67448
C         -5.43817        6.29336       -1.26625
C         -6.42563        7.02896       -1.92594
C         -6.07882        7.90439       -2.94278
B         -2.14930        7.40822       -3.12007
O         -1.79452        8.60708       -3.88369
H         -2.22129        8.58213       -4.74344
H         -3.34751        5.87692       -1.17337
H         -7.46595        6.91742       -1.63830
H         -6.85169        8.47195       -3.44857
H         -4.50409        8.75711       -4.10581
H          0.86650        1.90592        4.02303
H         -0.25269        7.77833        5.64801
H          1.95961        6.64246        5.84983
H          2.45792        4.69329        4.48811
H         -1.68975        0.67688        0.38213
H          2.27751        5.40051        1.17601
H         -0.33163        8.54037        0.01946
H         -0.55709        4.73530       -4.46476
H          0.09697        6.37196       -4.51590
H         -0.71275        4.89359       -1.97764
H          0.59483        7.60028       -2.47422
H         -0.15996        6.20138        0.11933
H          2.49302        6.97142       -1.16784
H          2.89789        4.60692       -1.46735
H          3.73625        3.63516        0.37895
H          3.35363        2.10083        1.15110
H          1.22252        1.13917        1.09366
H         -0.77802        2.31849       -0.86276
H          0.71959        3.05703       -3.19515
H          1.43659        0.81309       -3.49784
H         -0.21384        0.39012       -3.07121
H          1.25182        0.08398       -1.20896
C         -2.38521        4.22594        1.39532
C         -1.84100        5.09320        2.49284
C         -2.77938        6.01560        2.81336
C         -3.97163        5.83541        2.01166
C         -3.75493        4.79720        1.17280
C         -2.31039        6.95032        3.86733
C         -4.82123        4.30089        0.25635
C         -5.83975        5.39680       -0.10660
C         -6.14019        6.30340        1.07031
C         -5.24494        6.53576        2.03471
H         -2.42338        3.16552        1.65989
H         -1.77536        4.27226        0.48726
H         -2.29339        7.99121        3.52772
H         -2.93521        6.93248        4.76645
H         -5.35736        3.48101        0.75241
H         -4.40122        3.86367       -0.65355
H         -6.77014        4.89862       -0.39368
H         -7.08934        6.82646        1.06551
H         -5.45849        7.23799        2.83254
