88
Coordinates from ORCA-job Complex_opt_315 charge=-2
O         -1.51572        0.09838       -0.07632
C         -0.10777        0.02093        0.07282
O          0.24069       -0.93842        1.02368
C          0.37071       -0.30681        2.31137
C         -0.36242       -1.10302        3.37009
O         -1.75896       -1.08411        3.26209
C         -0.05897        1.15602        2.11862
O          0.61473        1.95639        3.05625
C          0.37137        1.33495        0.67151
O         -0.03891        2.43195       -0.05331
C          0.56293       -0.12506       -1.28659
O          0.19705        1.00061       -2.04169
C         -2.20260       -1.07362       -0.41419
C         -3.00550       -0.83975       -1.70971
C         -4.21836        0.04946       -1.46089
C         -5.02673       -0.56802       -0.32902
C         -4.14652       -0.64672        0.90984
C         -4.96387       -1.22162        2.06102
O         -6.09628       -0.43110        2.26935
O         -3.02332       -1.48532        0.64732
O         -6.17282        0.17750       -0.08731
O         -4.96271        0.13504       -2.65308
O         -2.18618       -0.38914       -2.75131
C          0.15850        3.72110       -3.66678
C         -0.25919        3.48114       -2.35193
C         -1.25027        4.32508       -1.85257
C         -1.79381        5.38179       -2.59100
C         -1.33911        5.59540       -3.89018
C         -0.37168        4.75525       -4.42652
B          0.48363        2.34421       -1.45172
O          1.93873        2.50896       -1.49181
C         -9.32223        0.91103        1.71050
C         -7.96121        1.02964        1.42388
C         -7.45356        2.32650        1.35845
C         -8.23908        3.47424        1.48324
C         -9.59570        3.30819        1.77314
C        -10.12394        2.03215        1.90444
B         -6.97371       -0.23290        1.09131
O         -7.69607       -1.45534        0.73666
H         -8.12874       -1.81679        1.51387
H         -6.39354        2.44381        1.16903
H        -10.25113        4.16603        1.86148
H        -11.17857        1.91373        2.12386
H         -9.78052       -0.07065        1.76902
H          2.17780        3.36959       -1.13960
H         -1.59697        4.18232       -0.83490
H         -1.75068        6.40163       -4.48617
H         -0.02907        4.91466       -5.44218
H          0.92907        3.09680       -4.10603
H          0.27743        2.85380        2.97847
H         -1.58778        0.31281       -2.43901
H         -5.80830        0.53546       -2.42230
H         -4.36659       -1.24084        2.97917
H         -5.21253       -2.26870        1.82335
H         -3.80895        0.36260        1.18616
H         -5.27466       -1.60577       -0.62197
H         -3.88069        1.05127       -1.14288
H         -3.38543       -1.82083       -2.02087
H         -1.51087       -1.90643       -0.57755
H          0.25628       -1.03521       -1.81459
H          1.64771       -0.20385       -1.13420
H          1.47477        1.26955        0.69476
H         -1.14639        1.26088        2.22031
H         -2.01757       -1.40865        2.38817
H          0.03492       -2.12779        3.36597
H         -0.10549       -0.67506        4.34245
H          1.43408       -0.31098        2.58777
C         -6.51596        4.91154        0.41802
C         -7.65233        4.80850        1.22290
C         -8.21619        5.99173        1.71858
C         -7.69601        7.24388        1.40170
C         -6.57630        7.32936        0.59255
C         -5.82366        8.52633        0.07169
C         -4.71360        7.89163       -0.72713
C         -3.68069        8.46762       -1.44661
C         -2.74858        7.64512       -2.07303
C         -2.82454        6.25028       -1.98490
C         -3.88285        5.67898       -1.28017
C         -4.81487        6.49895       -0.66781
C         -5.98477        6.15313        0.12738
H         -6.06172        4.02778       -0.01089
H         -9.08140        5.94204        2.36760
H         -8.17067        8.13533        1.79358
H         -6.45924        9.16966       -0.54379
H         -5.43732        9.15615        0.87826
H         -3.58055        9.54412       -1.51539
H         -1.92619        8.09654       -2.61449
H         -3.97346        4.60039       -1.21868
