88
Coordinates from ORCA-job Complex_opt_318
O         -1.70974        2.19538       -0.78595
C         -0.32944        2.15050       -0.46440
O          0.39728        1.54289       -1.48735
C          0.53632        0.13836       -1.20363
C          0.21093       -0.68552       -2.43121
O         -1.13849       -0.68075       -2.80876
C         -0.29807       -0.13319        0.05787
O          0.26573       -1.21824        0.75075
C         -0.15607        1.22282        0.72979
O         -0.96943        1.56696        1.78697
C          0.16472        3.52369       -0.03177
O         -0.60591        3.90319        1.08009
C         -2.09461        2.80407       -1.98681
C         -3.08705        3.94316       -1.68614
C         -4.43167        3.39579       -1.21877
C         -4.92980        2.38874       -2.24213
C         -3.88499        1.29596       -2.42827
C         -4.40692        0.31578       -3.46997
O         -5.62940       -0.20260       -3.04545
O         -2.64795        1.85605       -2.86201
O         -6.13912        1.84572       -1.82890
O         -5.32137        4.47607       -1.06876
O         -2.53693        4.89197       -0.81488
C         -1.82464        3.65313        4.55183
C         -1.92910        3.41110        3.17990
C         -3.20271        3.53916        2.62764
C         -4.32890        3.89025        3.36900
C         -4.18328        4.12496        4.73447
C         -2.93079        4.00033        5.32123
B         -0.66943        2.96733        2.24281
O          0.61952        3.04323        2.92012
C         -8.42494       -1.15757       -2.53909
C         -7.77880       -0.14027       -1.82154
C         -8.10867       -0.04690       -0.45830
C         -9.03219       -0.92200        0.12050
C         -9.64822       -1.91709       -0.62188
C         -9.33865       -2.03292       -1.97001
B         -6.68849        0.76803       -2.65641
O         -7.30513        1.40980       -3.82833
H         -7.63589        0.74742       -4.43953
H         -9.26799       -0.81813        1.17384
H        -10.35678       -2.58990       -0.15497
H         -9.80467       -2.80241       -2.57415
H         -8.19964       -1.28688       -3.59358
H          0.65172        2.41385        3.64452
H         -3.33253        3.37023        1.56508
H         -5.04300        4.40203        5.33334
H         -2.81755        4.17969        6.38391
H         -0.85933        3.57571        5.04044
H         -0.31521       -1.43671        1.48574
H         -2.13258        4.45189       -0.04645
H         -6.17671        4.09963       -0.83399
H         -3.69649       -0.50747       -3.60770
H         -4.47537        0.83889       -4.43846
H         -3.74365        0.75881       -1.47973
H         -5.02459        2.92011       -3.20888
H         -4.30375        2.86851       -0.25919
H         -3.25997        4.46448       -2.63556
H         -1.23186        3.21710       -2.51995
H          0.06248        4.27767       -0.82036
H          1.23647        3.45153        0.19759
H          0.91156        1.29145        1.01056
H         -1.34617       -0.33181       -0.19911
H         -1.42729        0.22870       -2.96561
H          0.86624       -0.35611       -3.24979
H          0.48311       -1.72184       -2.21528
H          1.58931       -0.05652       -0.95786
C         -7.44707        3.33272        1.26505
C         -7.99093        4.64480        1.26402
C         -9.16518        4.91807        0.52103
C         -9.76550        3.92790       -0.20228
C         -9.21615        2.63224       -0.22828
C         -8.07880        2.31911        0.47911
C         -7.50385        0.97284        0.44086
C         -6.48305        0.66214        1.23940
C         -5.77405        1.63868        2.11090
C         -6.27156        3.05602        2.01224
C         -5.62747        4.08360        2.67961
C         -6.18423        5.38033        2.67401
C         -7.33835        5.65646        1.99744
H         -9.57282        5.92163        0.53386
H        -10.66274        4.13520       -0.77131
H         -9.69668        1.87138       -0.82867
H         -6.08079       -0.34486        1.22450
H         -4.70831        1.58437        1.87159
H         -5.82787        1.31292        3.15798
H         -5.67086        6.16983        3.20916
H         -7.75281        6.65733        2.00272
