89
Coordinates from ORCA-job Complex_opt_256 charge=-2
O         -2.02670       -0.01435       -1.16679
C         -0.75298       -0.58161       -0.94573
O         -0.84845       -1.92074       -0.57435
C         -0.89767       -2.01382        0.86104
C         -2.03656       -2.91340        1.29357
O         -3.31813       -2.40162        1.04590
C         -0.92495       -0.57087        1.39077
O         -0.31353       -0.53952        2.65583
C         -0.16394        0.12130        0.27035
O         -0.22279        1.49095        0.15431
C          0.17045       -0.28942       -2.11535
O          0.18859        1.10451       -2.26301
C         -2.86419       -0.53693       -2.15718
C         -3.20352        0.57115       -3.17383
C         -4.06469        1.64775       -2.52068
C         -5.28562        0.97451       -1.91147
C         -4.82886       -0.08134       -0.91240
C         -6.05582       -0.73227       -0.29606
O         -6.81255        0.25567        0.33569
O         -4.02419       -1.06023       -1.56559
O         -6.10223        1.92708       -1.30697
O         -4.42484        2.59695       -3.49644
O         -2.06228        1.07349       -3.80574
C         -0.05582        3.96715       -2.72436
C         -0.14176        3.44726       -1.42743
C         -0.75546        4.25636       -0.46841
C         -1.26882        5.52395       -0.76014
C         -1.17983        5.99089       -2.07152
C         -0.56752        5.21603       -3.04637
B          0.46665        1.97642       -1.07703
O          1.92231        1.97828       -0.90995
C         -9.08592        2.89401        0.64330
C         -7.73167        2.55225        0.56315
C         -6.88017        3.17148        1.49367
C         -7.36705        4.05346        2.46554
C         -8.72162        4.35671        2.51346
C         -9.58311        3.77846        1.59294
B         -7.23398        1.40430       -0.50731
O         -8.27409        1.01049       -1.45921
H         -8.97931        0.55047       -0.99805
H         -9.09807        5.04624        3.26087
H        -10.64014        4.01687        1.61627
H         -9.78451        2.45677       -0.06162
H          2.16170        2.53938       -0.16788
H         -0.83988        3.89493        0.55068
H         -1.59981        6.95560       -2.32950
H         -0.50313        5.58633       -4.06284
H          0.41110        3.38100       -3.50791
H         -0.42767        0.34323        3.02013
H         -1.35934        1.27694       -3.15291
H         -5.10312        3.15491       -3.10013
H         -5.76063       -1.48677        0.44208
H         -6.61426       -1.26269       -1.08507
H         -4.25399        0.39615       -0.10765
H         -5.81795        0.44461       -2.72483
H         -3.49268        2.13022       -1.70935
H         -3.80841        0.10066       -3.95946
H         -2.39671       -1.37700       -2.68294
H         -0.16388       -0.75165       -3.05204
H          1.16213       -0.70900       -1.89746
H          0.87981       -0.23567        0.36121
H         -1.95489       -0.19576        1.44535
H         -3.41541       -2.21767        0.10236
H         -1.89375       -3.89948        0.83022
H         -1.95082       -3.06216        2.37292
H          0.03361       -2.48365        1.20523
C         -3.60072        4.66582        0.93396
C         -2.94469        5.87608        1.16830
C         -3.37190        6.67238        2.24376
C         -4.47559        6.28345        2.99027
C         -5.14109        5.09333        2.72660
C         -4.66907        4.25713        1.71995
C         -5.38434        2.95302        1.51372
C         -6.38662        4.65461        3.44457
C         -1.87723        6.38712        0.28086
C         -1.52225        7.67976        0.35826
C         -2.14557        8.64068        1.32056
C         -2.60589        7.92124        2.57744
H         -3.28659        4.03384        0.11164
H         -4.82924        6.92845        3.78838
H         -5.12819        2.27733        2.34157
H         -5.04678        2.47129        0.60377
H         -6.12407        3.89710        4.19574
H         -6.83673        5.48405        3.99315
H         -0.77198        8.06504       -0.32324
H         -2.99395        9.14176        0.83626
H         -1.43840        9.43113        1.57708
H         -3.20397        8.58198        3.20706
H         -1.72451        7.64183        3.16649
