91
Coordinates from ORCA-job Complex_opt_388
O          0.01216       -0.02550       -0.00372
C          1.20214        0.72869       -0.13993
O          2.23528        0.17383        0.61466
C          2.25046        0.78592        1.91931
C          2.33130       -0.26738        3.00426
O          1.17774       -1.04865        3.15660
C          1.03901        1.73123        1.96848
O          1.32595        2.79567        2.84026
C          0.95869        2.09034        0.49376
O         -0.16013        2.71671       -0.01177
C          1.51926        0.97033       -1.60922
O          0.41045        1.63799       -2.15831
C          0.02295       -1.37929       -0.36071
C         -1.04468       -1.62689       -1.44429
C         -2.44648       -1.47897       -0.86419
C         -2.56813       -2.39420        0.34246
C         -1.48629       -2.04614        1.35423
C         -1.62985       -2.99063        2.53892
O         -2.90240       -2.84059        3.08832
O         -0.19349       -2.18071        0.77067
O         -3.82879       -2.26911        0.91139
O         -3.38683       -1.80269       -1.86129
O         -0.82086       -0.84529       -2.58407
C         -1.81697        4.49306       -2.65582
C         -1.52605        3.27390       -2.03920
C         -2.59247        2.38617       -1.88755
C         -3.88721        2.66771       -2.32631
C         -4.13601        3.90270       -2.92517
C         -3.10070        4.81080       -3.08530
B         -0.03160        2.90409       -1.49475
O          0.96660        3.91674       -1.81866
C         -5.69527       -2.97535        4.18244
C         -5.33723       -2.35366        2.97663
C         -6.11178       -1.24115        2.60744
C         -7.16735       -0.79668        3.40982
C         -7.48766       -1.43695        4.59607
C         -6.74062       -2.54155        4.98360
B         -4.05666       -2.99229        2.16337
O         -4.28712       -4.40341        1.81182
H         -4.38403       -4.93458        2.60586
H         -7.74499        0.06425        3.09217
H         -8.30841       -1.07981        5.20546
H         -6.97308       -3.06099        5.90573
H         -5.12947       -3.83897        4.51833
H          0.77775        4.72996       -1.34467
H         -2.41180        1.42303       -1.42503
H         -5.13628        4.14926       -3.26077
H         -3.29668        5.76965       -3.55029
H         -1.02714        5.22014       -2.80925
H          0.52933        3.32694        2.93178
H         -0.63631        0.08219       -2.34063
H         -4.25124       -1.79336       -1.43506
H         -0.87908       -2.76549        3.30500
H         -1.43112       -4.01866        2.19295
H         -1.63559       -1.01639        1.70867
H         -2.37632       -3.42842       -0.00362
H         -2.59852       -0.44432       -0.51904
H         -0.93028       -2.67074       -1.76315
H          1.00081       -1.68293       -0.74935
H          1.69950        0.04213       -2.16387
H          2.44323        1.55963       -1.67363
H          1.87104        2.68348        0.29532
H          0.13756        1.19415        2.28885
H          0.98667       -1.49899        2.32309
H          3.22207       -0.88474        2.82255
H          2.50006        0.24900        3.95268
H          3.15889        1.39853        1.99622
C         -5.86105       -0.47548        1.35572
C         -7.43594       -1.90469        0.08982
C         -8.06665       -2.23103       -1.06057
C         -7.81578       -1.50917       -2.26941
C         -4.72878        1.33554        0.21505
C         -5.02157        0.62911        1.36942
C         -8.46108       -1.82097       -3.46750
C         -6.21802       -0.09674       -1.03072
C         -5.61821        1.30740       -3.38886
C         -4.95687        1.64656       -2.25115
C         -5.28170        0.97151       -1.01376
C         -6.49935       -0.82137        0.15693
C         -8.18896       -1.10335       -4.62212
C         -7.26610       -0.06898       -4.60610
C         -6.60168        0.27274       -3.42641
C         -6.87913       -0.44704       -2.24052
H         -7.64188       -2.46627        0.99114
H         -8.77640       -3.04927       -1.08170
H         -4.05278        2.17797        0.27431
H         -4.55673        0.92741        2.30123
H         -9.17905       -2.63188       -3.48734
H         -5.37110        1.80458       -4.32000
H         -8.69658       -1.35594       -5.54402
H         -7.05082        0.48120       -5.51409
