89
Coordinates from ORCA-job Complex_opt_378 charge=-2
O         -0.17159        2.23599       -0.08881
C          0.55072        1.02060       -0.05266
O          1.33044        0.86647       -1.19818
C          0.57663        0.14779       -2.19207
C          0.64756        0.85945       -3.52684
O         -0.00959        2.09671       -3.57070
C         -0.82409       -0.07078       -1.59977
O         -1.36372       -1.25240       -2.13406
C         -0.46203       -0.11467       -0.12291
O         -1.45189       -0.00092        0.82518
C          1.28729        0.87348        1.26883
O          0.31475        0.95657        2.27703
C          0.53439        3.44411       -0.15385
C          0.16197        4.32504        1.05606
C         -1.27472        4.82609        0.94253
C         -1.41815        5.53554       -0.39483
C         -1.07535        4.55832       -1.51133
C         -1.23917        5.26631       -2.84940
O         -2.54515        5.74622       -2.95857
O          0.26589        4.09554       -1.36708
O         -2.70810        6.03285       -0.54631
O         -1.53761        5.68533        2.02676
O          0.44215        3.69757        2.27330
C         -2.07667        0.64727        4.52398
C         -2.03027        0.80323        3.13512
C         -2.96373        1.67635        2.57877
C         -3.89011        2.38746        3.34260
C         -3.89417        2.22028        4.72475
C         -2.98908        1.34294        5.30935
B         -0.89876        0.07808        2.21077
O         -0.48679       -1.23149        2.70559
C         -5.37044        7.85990       -2.24153
C         -4.64282        6.69847       -1.97105
C         -5.38723        5.54662       -1.72519
C         -6.78149        5.52943       -1.69987
C         -7.47255        6.70393       -1.98996
C         -6.76168        7.86427       -2.26611
B         -3.01142        6.63482       -1.86584
O         -2.37225        7.94995       -1.91708
H         -2.48829        8.32889       -2.79154
H         -4.86425        4.62031       -1.51279
H         -8.55618        6.71743       -1.97527
H         -7.29843        8.78039       -2.48294
H         -4.84573        8.79064       -2.42969
H         -1.24317       -1.82281        2.72412
H         -2.96500        1.83153        1.50564
H         -4.60488        2.76230        5.33741
H         -2.99812        1.20305        6.38387
H         -1.38293       -0.03161        5.00820
H         -2.27455       -1.32665       -1.83411
H          0.14092        2.76633        2.26878
H         -2.38962        6.09890        1.84983
H         -1.04145        4.57109       -3.67334
H         -0.48217        6.06469       -2.92138
H         -1.77162        3.70797       -1.47935
H         -0.66881        6.34919       -0.42631
H         -1.96800        3.96884        0.95753
H          0.81410        5.20684        1.00783
H          1.61644        3.27404       -0.14961
H          2.04342        1.65135        1.42811
H          1.82388       -0.08513        1.26752
H          0.11701       -1.04904        0.00854
H         -1.47657        0.78683       -1.80847
H          0.35970        2.67940       -2.89412
H          1.70426        0.94739       -3.81549
H          0.17533        0.21419       -4.27200
H          1.04287       -0.83760       -2.32797
C         -7.47596        4.25345       -1.41026
C         -8.38968        3.78111       -2.33570
C         -8.90485        2.48378       -2.26342
C         -8.43107        1.62200       -1.30615
C         -7.50904        2.06870       -0.34357
C         -6.92710        1.14309        0.57849
C         -5.98708        1.53593        1.46564
C         -5.66709        2.92233        1.63309
C         -4.78400        3.34856        2.66038
C         -4.71248        4.68906        2.97384
C         -5.47813        5.62393        2.27079
C         -6.24253        5.23174        1.19894
C         -6.32119        3.87792        0.82121
C         -7.10844        3.42376       -0.31521
H         -8.66610        4.41346       -3.17058
H         -9.62128        2.14616       -3.00082
H         -8.74859        0.58630       -1.28963
H         -7.22634        0.10333        0.52209
H         -5.52021        0.80747        2.11441
H         -4.05446        5.01787        3.76848
H         -5.44790        6.66761        2.55593
H         -6.80834        5.97785        0.66229
