89
Coordinates from ORCA-job Complex_opt_267 charge=-2
O         -2.13451        2.89241       -2.07777
C         -0.92297        2.39243       -2.61749
O         -1.14033        1.21788       -3.33385
C         -0.95254        0.08454       -2.46513
C         -2.11495       -0.88034       -2.58172
O         -3.32244       -0.42871       -2.03218
C         -0.67391        0.65385       -1.06588
O          0.15099       -0.24113       -0.36380
C         -0.03011        1.97393       -1.45739
O          0.11270        2.96498       -0.51638
C         -0.18407        3.49243       -3.36059
O          0.00196        4.53679       -2.44143
C         -3.20901        3.13309       -2.94183
C         -3.62620        4.61871       -2.88485
C         -4.32159        4.96259       -1.57217
C         -5.44683        3.96780       -1.33392
C         -4.87479        2.55778       -1.34448
C         -5.99928        1.56704       -1.07912
O         -6.63104        1.89734        0.11880
O         -4.27870        2.28666       -2.61265
O         -6.09573        4.23722       -0.13064
O         -4.80239        6.28444       -1.64519
O         -2.55347        5.46937       -3.17550
C          0.87378        6.57883        0.17146
C          0.13192        5.42850       -0.09892
C         -1.13507        5.35132        0.48042
C         -1.69841        6.37854        1.23852
C         -0.91794        7.50986        1.49442
C          0.36338        7.59875        0.97128
B          0.62250        4.24291       -1.10515
O          2.06450        4.19841       -1.32289
C         -8.47212        2.33861        2.23567
C         -7.80797        3.46258        1.72272
C         -8.08837        4.68728        2.36489
C         -9.15541        4.79664        3.27446
C         -9.80440        3.65772        3.72933
C         -9.41881        2.41574        3.24801
B         -7.15553        3.28053        0.21265
O         -8.26174        3.51166       -0.73898
H         -8.97707        2.89671       -0.55855
H        -10.61876        3.74829        4.43944
H         -9.90065        1.51645        3.61366
H         -8.27044        1.36676        1.80141
H          2.51434        4.03953       -0.48961
H         -1.72049        4.45981        0.29707
H         -1.30915        8.31395        2.10687
H          0.96606        8.47416        1.18375
H          1.87054        6.68702       -0.24264
H          0.23102        0.07571        0.54084
H         -1.76677        5.21872       -2.65444
H         -5.29029        6.44336       -0.82839
H         -5.59867        0.54940       -1.00568
H         -6.68541        1.57488       -1.94133
H         -4.12643        2.45679       -0.54507
H         -6.13818        4.04721       -2.19289
H         -3.59010        4.86683       -0.75936
H         -4.35767        4.76007       -3.69074
H         -2.94866        2.88677       -3.97675
H         -0.73986        3.86234       -4.23006
H          0.76177        3.08414       -3.74344
H          0.94326        1.70135       -1.90941
H         -1.61215        0.82821       -0.52427
H         -3.58154        0.40453       -2.44970
H         -2.22517       -1.16074       -3.63858
H         -1.83849       -1.79236       -2.04638
H         -0.05487       -0.45283       -2.79927
C         -6.16189        8.38072        1.43497
C         -5.37042        7.26912        1.71600
C         -5.96965        6.05378        2.08186
C         -7.36214        5.94897        2.08441
C         -8.13671        7.11529        1.94607
C         -7.53645        8.31567        1.59828
C         -3.92228        7.34817        1.57184
C         -3.11054        6.28265        1.65282
C         -3.67200        4.93566        2.02007
C         -5.05660        5.00135        2.65255
C         -9.58117        7.03272        2.34940
C         -9.65443        6.17502        3.61584
H         -5.69125        9.31066        1.13654
H         -8.14275        9.20599        1.47832
H         -3.52147        8.30835        1.26257
H         -3.70166        4.29709        1.13518
H         -2.98928        4.43755        2.71365
H         -5.51243        4.01578        2.62898
H         -4.93528        5.25715        3.71290
H         -9.98014        8.03311        2.52594
H        -10.19862        6.57395        1.56910
H        -10.67755        6.11722        3.99190
H         -9.05189        6.64448        4.40139
