86
Coordinates from ORCA-job Complex_opt_16 charge=-2
O         -0.42168        4.05525       -0.35316
C          0.76234        3.35880       -0.00423
O          1.39841        2.85264       -1.13580
C          0.93032        1.51310       -1.38665
C          0.48817        1.35948       -2.82832
O         -0.67841        2.05852       -3.16644
C         -0.13240        1.21701       -0.31779
O         -0.12655       -0.15879       -0.03208
C          0.36842        2.12450        0.79367
O         -0.46226        2.41155        1.84669
C          1.62069        4.20806        0.91825
O          0.80485        4.54329        2.00895
C         -0.31716        5.15152       -1.21949
C         -0.83492        6.43344       -0.52921
C         -2.35422        6.42198       -0.39526
C         -2.94230        6.17880       -1.77589
C         -2.43046        4.84530       -2.29773
C         -3.05161        4.58924       -3.66454
O         -4.44185        4.60289       -3.55059
O         -1.00908        4.88503       -2.41134
O         -4.32949        6.20648       -1.71970
O         -2.76786        7.65900        0.13569
O         -0.17161        6.69732        0.67177
C         -1.02889        5.23962        4.36420
C         -1.25075        4.24515        3.39901
C         -2.58571        4.06050        3.03088
C         -3.62176        4.85766        3.55415
C         -3.36263        5.84062        4.49839
C         -2.04750        6.01610        4.90886
B          0.04330        3.47940        2.74677
O          0.97159        2.94471        3.74214
C         -7.74042        6.00655       -2.91647
C         -6.55830        5.41212       -2.46763
C         -6.69017        4.45408       -1.46395
C         -7.90726        4.11116       -0.88284
C         -9.06315        4.72280       -1.35636
C         -8.97678        5.66086       -2.38004
B         -5.05076        5.81883       -2.95614
O         -5.00908        6.95406       -3.87796
H         -5.42760        6.71048       -4.70693
H         -5.78768        3.98256       -1.09220
H        -10.02621        4.47853       -0.92160
H         -9.87950        6.13793       -2.74398
H         -7.70134        6.76748       -3.68912
H          0.54006        2.25392        4.25129
H         -4.15853        6.45588        4.90186
H         -1.81118        6.77071        5.64980
H         -0.01552        5.42226        4.70571
H         -0.86029       -0.34061        0.56290
H         -0.07585        5.88526        1.21219
H         -3.72329        7.70309        0.01643
H         -2.73259        3.61512       -4.05332
H         -2.67202        5.34878       -4.36804
H         -2.73604        4.03838       -1.61445
H         -2.54685        6.96454       -2.44788
H         -2.66544        5.59694        0.26887
H         -0.58350        7.26089       -1.20578
H          0.72215        5.31721       -1.52301
H          1.98515        5.12501        0.44097
H          2.50882        3.62979        1.20764
H          1.32020        1.67222        1.13641
H         -1.12419        1.54108       -0.65906
H         -0.54865        3.00270       -3.00230
H          1.33106        1.62821       -3.48009
H          0.28945        0.29820       -2.99869
H          1.77223        0.82525       -1.23204
C         -7.15374        4.51097        2.18217
C         -6.16515        5.01565        3.01370
C         -4.88326        4.48443        2.91561
C         -4.63355        3.42902        2.04058
C         -5.63331        2.88410        1.24736
C         -6.89822        3.47150        1.28367
C         -3.18100        3.07292        2.05459
C         -7.94177        3.09769        0.25664
C         -7.71997        1.71934       -0.29876
C         -6.54220        1.10750       -0.26631
C         -5.32873        1.70756        0.36385
H         -8.14536        4.94921        2.20700
H         -6.38842        5.82643        3.69678
H         -3.01505        2.03685        2.36334
H         -2.74368        3.15679        1.05750
H         -8.93486        3.14105        0.71592
H         -8.56595        1.24888       -0.78733
H         -6.42783        0.13086       -0.72289
H         -4.61137        1.99477       -0.41715
H         -4.80299        0.94465        0.94824
