86
Coordinates from ORCA-job Complex_opt_36 charge=-2
O          0.86002        2.52462        0.08463
C          1.31217        1.31458        0.65576
O          1.87056        0.47755       -0.30973
C          0.85113       -0.39898       -0.82376
C          0.88551       -0.41379       -2.33748
O          0.52900        0.79947       -2.94223
C         -0.46834        0.03788       -0.16674
O         -1.32018       -1.07496       -0.06808
C          0.08357        0.56340        1.14856
O         -0.71059        1.33547        1.96773
C          2.18159        1.58581        1.87263
O          1.39762        2.33833        2.76087
C          1.78122        3.37931       -0.53250
C          1.71512        4.76167        0.14472
C          0.38255        5.44075       -0.15542
C          0.20455        5.48655       -1.66573
C          0.26933        4.07352       -2.22760
C          0.09915        4.15547       -3.73660
O         -1.14116        4.72429       -4.01900
O          1.51593        3.46485       -1.90685
O         -1.00409        6.09153       -1.98595
O          0.39703        6.73146        0.40814
O          2.01866        4.69512        1.50801
C         -0.11646        3.48494        5.08350
C         -0.69516        3.08829        3.90139
C         -1.81867        3.87032        3.44424
C         -2.24256        5.03252        4.18201
C         -1.57455        5.37789        5.38820
C         -0.54220        4.61174        5.83030
B          0.04746        1.81608        3.15949
O          0.29175        0.71525        4.08923
C         -3.90874        6.78151       -4.25070
C         -3.09747        6.08390       -3.35178
C         -3.75618        5.33129       -2.38059
C         -5.14175        5.23839       -2.28318
C         -5.91510        5.94233       -3.20133
C         -5.29664        6.71203       -4.18126
B         -1.46107        6.03436       -3.39122
O         -0.83462        7.14786       -4.10343
H         -1.07369        7.11607       -5.03286
H         -3.14894        4.80443       -1.65423
H         -6.99746        5.89184       -3.15115
H         -5.90406        7.26214       -4.89093
H         -3.45856        7.39792       -5.02288
H         -0.54404        0.37256        4.41491
H         -1.90338        6.25098        5.93992
H         -0.03113        4.86451        6.75168
H          0.71890        2.91833        5.47762
H         -2.17596       -0.76774        0.24626
H          1.56571        3.94011        1.93672
H         -0.39303        7.18252        0.09098
H          0.14843        3.15528       -4.18236
H          0.94228        4.73058       -4.15539
H         -0.55974        3.47972       -1.81549
H          1.06356        6.04662       -2.08453
H         -0.44062        4.84314        0.27224
H          2.50286        5.37181       -0.31595
H          2.80329        2.99208       -0.45777
H          3.09450        2.14287        1.63164
H          2.50307        0.62551        2.29640
H          0.46058       -0.32833        1.68265
H         -0.94342        0.84362       -0.74105
H          1.13099        1.49215       -2.64175
H          1.88007       -0.75356       -2.65808
H          0.17423       -1.16959       -2.67984
H          1.07218       -1.42035       -0.48508
C         -5.01183        6.34256        2.01623
C         -5.63066        6.03411        0.84328
C         -5.28000        4.84175        0.15795
C         -4.33158        3.99748        0.65131
C         -3.60853        4.31992        1.83509
C         -3.97708        5.50930        2.54065
C         -5.77057        4.39206       -1.19501
C         -5.31605        2.91170       -1.22331
C         -4.14494        2.79666       -0.22968
C         -3.29497        5.81970        3.71073
C         -2.54743        3.54610        2.29262
H         -5.28378        7.23953        2.56037
H         -6.39252        6.68753        0.43500
H         -6.85862        4.46594       -1.28030
H         -6.14069        2.28403       -0.88045
H         -5.05211        2.57713       -2.22637
H         -4.17553        1.85963        0.33209
H         -3.16983        2.81730       -0.72849
H         -3.58039        6.70482        4.26997
H         -2.25945        2.66707        1.73834
